*SOIL-PLANT-ATMOSPHERE MODULE OUTPUT FILE

*DSSAT Cropping System Model Ver. 4.8.5.000 -release  SEP 11, 2025 14:40:05

*RUN   1        : DRYLAND  - 0 KG N/HA      CSCER048 KSAS8101    1
 MODEL          : CSCER048 - Wheat
 EXPERIMENT     : KSAS8101 WH N RESPONSE,KANSAS STATE  3FE(N)*2IR  (DSSAT3)
 DATA PATH      :
 TREATMENT  1   : DRYLAND  - 0 KG N/HA      CSCER048
  
@YEAR DOY   DAS   SRAA  TMAXA  TMINA    REFA    EOAA    EOPA    EOSA    ETAA    EPAA    ESAA    EFAA    EMAA    EOAC    ETAC    EPAC    ESAC    EFAC    EMAC    KCAA    KBSA    KEAA
 1981 279     1  16.50  18.90   9.40 -99.000   3.614   0.000   3.614   3.614   0.000   3.614   0.000   0.000    3.61    3.61    0.00    3.61    0.00    0.00 -99.000 -99.000 -99.000 
 1981 280     2  12.30  17.80   6.10 -99.000   2.515   0.000   2.515   1.663   0.000   1.663   0.000   0.000    6.13    5.28    0.00    5.28    0.00    0.00 -99.000 -99.000 -99.000 
 1981 281     3  13.70  18.90   2.80 -99.000   2.737   0.000   2.737   2.449   0.000   2.449   0.000   0.000    8.87    7.73    0.00    7.73    0.00    0.00 -99.000 -99.000 -99.000 
 1981 282     4   3.20  15.60  12.80 -99.000   0.662   0.000   0.662   0.662   0.000   0.662   0.000   0.000    9.53    8.39    0.00    8.39    0.00    0.00 -99.000 -99.000 -99.000 
 1981 283     5  11.60  18.30   7.20 -99.000   2.365   0.000   2.365   1.102   0.000   1.102   0.000   0.000   11.89    9.49    0.00    9.49    0.00    0.00 -99.000 -99.000 -99.000 
 1981 284     6   4.40  18.30   7.80 -99.000   0.898   0.000   0.898   0.476   0.000   0.476   0.000   0.000   12.79    9.97    0.00    9.97    0.00    0.00 -99.000 -99.000 -99.000 
 1981 285     7   1.70  18.30  13.90 -99.000   0.367   0.000   0.367   0.354   0.000   0.354   0.000   0.000   13.16   10.32    0.00   10.32    0.00    0.00 -99.000 -99.000 -99.000 
 1981 286     8   1.80  20.60  17.80 -99.000   0.430   0.000   0.430   0.430   0.000   0.430   0.000   0.000   13.59   10.75    0.00   10.75    0.00    0.00 -99.000 -99.000 -99.000 
 1981 287     9   6.80  20.60  13.30 -99.000   1.560   0.000   1.560   1.476   0.000   1.476   0.000   0.000   15.15   12.23    0.00   12.23    0.00    0.00 -99.000 -99.000 -99.000 
 1981 288    10   6.40  17.20   9.40 -99.000   1.358   0.000   1.358   1.358   0.000   1.358   0.000   0.000   16.51   13.58    0.00   13.58    0.00    0.00 -99.000 -99.000 -99.000 
 1981 289    11   3.40  16.70   8.90 -99.000   0.707   0.000   0.707   0.707   0.000   0.707   0.000   0.000   17.21   14.29    0.00   14.29    0.00    0.00 -99.000 -99.000 -99.000 
 1981 290    12  12.50  20.00  12.20 -99.000   2.788   0.000   2.788   2.788   0.000   2.788   0.000   0.000   20.00   17.08    0.00   17.08    0.00    0.00 -99.000 -99.000 -99.000 
 1981 291    13  12.20  12.80   6.10 -99.000   2.363   0.000   2.363   2.303   0.000   2.303   0.000   0.000   22.36   19.38    0.00   19.38    0.00    0.00 -99.000 -99.000 -99.000 
 1981 292    14  15.70  24.40   0.00 -99.000   3.353   0.000   3.353   3.353   0.000   3.353   0.000   0.000   25.72   22.73    0.00   22.73    0.00    0.00 -99.000 -99.000 -99.000 
 1981 293    15  15.10  23.30  11.70 -99.000   3.461   0.000   3.461   1.466   0.000   1.466   0.000   0.000   29.18   24.20    0.00   24.20    0.00    0.00 -99.000 -99.000 -99.000 
 1981 294    16  11.00  16.70   6.70 -99.000   2.196   0.000   2.196   1.120   0.000   1.120   0.000   0.000   31.37   25.32    0.00   25.32    0.00    0.00 -99.000 -99.000 -99.000 
 1981 295    17  13.90  10.60   1.70 -99.000   2.391   0.000   2.391   0.942   0.000   0.942   0.000   0.000   33.76   26.26    0.00   26.26    0.00    0.00 -99.000 -99.000 -99.000 
 1981 296    18  15.10   7.20  -3.30 -99.000   2.300   0.004   2.296   0.833   0.004   0.829   0.000   0.000   36.06   27.10    0.00   27.09    0.00    0.00 -99.000 -99.000 -99.000 
 1981 297    19   4.90  11.10   1.10 -99.000   0.840   0.002   0.839   0.751   0.002   0.749   0.000   0.000   36.90   27.85    0.01   27.84    0.00    0.00 -99.000 -99.000 -99.000 
 1981 298    20   5.80  11.10   5.60 -99.000   1.042   0.004   1.038   0.647   0.004   0.643   0.000   0.000   37.95   28.49    0.01   28.48    0.00    0.00 -99.000 -99.000 -99.000 
 1981 299    21  13.00  15.60   0.00 -99.000   2.405   0.017   2.389   1.737   0.017   1.721   0.000   0.000   40.35   30.23    0.03   30.20    0.00    0.00 -99.000 -99.000 -99.000 
 1981 300    22  13.10  21.70   5.60 -99.000   2.784   0.027   2.757   0.841   0.027   0.814   0.000   0.000   43.14   31.07    0.05   31.02    0.00    0.00 -99.000 -99.000 -99.000 
 1981 301    23  12.10  21.70  10.60 -99.000   2.677   0.043   2.634   0.781   0.043   0.738   0.000   0.000   45.81   31.85    0.10   31.76    0.00    0.00 -99.000 -99.000 -99.000 
 1981 302    24  12.30  25.00  10.00 -99.000   2.812   0.068   2.744   0.748   0.068   0.680   0.000   0.000   48.63   32.60    0.16   32.44    0.00    0.00 -99.000 -99.000 -99.000 
 1981 303    25   2.90  18.30  13.90 -99.000   0.627   0.021   0.606   0.627   0.021   0.606   0.000   0.000   49.25   33.23    0.19   33.04    0.00    0.00 -99.000 -99.000 -99.000 
 1981 304    26   1.80  15.60  12.20 -99.000   0.368   0.015   0.353   0.368   0.015   0.353   0.000   0.000   49.62   33.60    0.20   33.40    0.00    0.00 -99.000 -99.000 -99.000 
 1981 305    27   2.90  15.00   9.40 -99.000   0.574   0.026   0.548   0.574   0.026   0.548   0.000   0.000   50.20   34.17    0.23   33.94    0.00    0.00 -99.000 -99.000 -99.000 
 1981 306    28   2.80  13.30   7.20 -99.000   0.556   0.027   0.529   0.556   0.027   0.529   0.000   0.000   50.75   34.73    0.25   34.47    0.00    0.00 -99.000 -99.000 -99.000 
 1981 307    29   6.20  15.60   7.20 -99.000   1.272   0.065   1.206   1.272   0.065   1.206   0.000   0.000   52.02   36.00    0.32   35.68    0.00    0.00 -99.000 -99.000 -99.000 
 1981 308    30   3.60  12.20   8.30 -99.000   0.704   0.038   0.665   0.704   0.038   0.665   0.000   0.000   52.73   36.70    0.36   36.34    0.00    0.00 -99.000 -99.000 -99.000 
 1981 309    31  12.20  15.60   5.60 -99.000   2.463   0.140   2.323   2.463   0.140   2.323   0.000   0.000   55.19   39.17    0.50   38.67    0.00    0.00 -99.000 -99.000 -99.000 
 1981 310    32  12.80  15.60  -2.20 -99.000   2.358   0.141   2.217   2.358   0.141   2.217   0.000   0.000   57.55   41.52    0.64   40.88    0.00    0.00 -99.000 -99.000 -99.000 
 1981 311    33   9.20  19.40   0.00 -99.000   1.817   0.111   1.706   1.319   0.111   1.208   0.000   0.000   59.36   42.84    0.75   42.09    0.00    0.00 -99.000 -99.000 -99.000 
 1981 312    34   1.10  16.70   5.00 -99.000   0.219   0.014   0.205   0.219   0.014   0.205   0.000   0.000   59.58   43.06    0.76   42.30    0.00    0.00 -99.000 -99.000 -99.000 
 1981 313    35  12.60   7.80  -2.80 -99.000   2.048   0.136   1.912   2.048   0.136   1.912   0.000   0.000   61.63   45.11    0.90   44.21    0.00    0.00 -99.000 -99.000 -99.000 
 1981 314    36  11.90  15.00  -3.90 -99.000   2.134   0.142   1.992   2.134   0.142   1.992   0.000   0.000   63.77   47.24    1.04   46.20    0.00    0.00 -99.000 -99.000 -99.000 
 1981 315    37  11.40  16.10  -1.10 -99.000   2.122   0.143   1.979   1.769   0.143   1.626   0.000   0.000   65.89   49.01    1.18   47.83    0.00    0.00 -99.000 -99.000 -99.000 
 1981 316    38  11.10  20.00   1.70 -99.000   2.239   0.155   2.084   2.239   0.155   2.084   0.000   0.000   68.13   51.25    1.34   49.91    0.00    0.00 -99.000 -99.000 -99.000 
 1981 317    39  10.90  19.40   1.70 -99.000   2.161   0.157   2.004   1.911   0.157   1.754   0.000   0.000   70.29   53.16    1.50   51.66    0.00    0.00 -99.000 -99.000 -99.000 
 1981 318    40   7.90  18.30   7.80 -99.000   1.623   0.123   1.500   1.352   0.123   1.229   0.000   0.000   71.91   54.51    1.62   52.89    0.00    0.00 -99.000 -99.000 -99.000 
 1981 319    41   8.50  20.00  10.00 -99.000   1.817   0.145   1.671   1.149   0.145   1.004   0.000   0.000   73.73   55.66    1.76   53.90    0.00    0.00 -99.000 -99.000 -99.000 
 1981 320    42  10.90  20.00  15.00 -99.000   2.427   0.205   2.221   1.076   0.205   0.870   0.000   0.000   76.15   56.74    1.97   54.77    0.00    0.00 -99.000 -99.000 -99.000 
 1981 321    43  10.40  23.30   2.20 -99.000   2.156   0.194   1.962   0.973   0.194   0.779   0.000   0.000   78.31   57.71    2.16   55.55    0.00    0.00 -99.000 -99.000 -99.000 
 1981 322    44   6.80  18.90   9.40 -99.000   1.415   0.133   1.282   0.845   0.133   0.712   0.000   0.000   79.72   58.56    2.30   56.26    0.00    0.00 -99.000 -99.000 -99.000 
 1981 323    45   2.30   9.40  -1.10 -99.000   0.371   0.037   0.334   0.371   0.037   0.334   0.000   0.000   80.10   58.93    2.33   56.59    0.00    0.00 -99.000 -99.000 -99.000 
 1981 324    46  10.00   3.90  -3.90 -99.000   0.943   0.093   0.849   0.730   0.093   0.637   0.000   0.000   81.04   59.66    2.43   57.23    0.00    0.00 -99.000 -99.000 -99.000 
 1981 325    47  10.10  10.60  -5.60 -99.000   1.576   0.156   1.420   0.755   0.156   0.599   0.000   0.000   82.61   60.41    2.58   57.83    0.00    0.00 -99.000 -99.000 -99.000 
 1981 326    48   7.00  17.20  -3.30 -99.000   1.252   0.124   1.128   0.690   0.124   0.566   0.000   0.000   83.87   61.10    2.71   58.39    0.00    0.00 -99.000 -99.000 -99.000 
 1981 327    49   9.10  15.00   6.10 -99.000   1.731   0.172   1.559   0.711   0.172   0.539   0.000   0.000   85.60   61.81    2.88   58.93    0.00    0.00 -99.000 -99.000 -99.000 
 1981 328    50   8.00  12.80   0.00 -99.000   1.379   0.140   1.239   0.655   0.140   0.515   0.000   0.000   86.98   62.47    3.02   59.45    0.00    0.00 -99.000 -99.000 -99.000 
 1981 329    51   8.50  19.40   5.00 -99.000   1.702   0.173   1.529   0.667   0.173   0.494   0.000   0.000   88.68   63.13    3.19   59.94    0.00    0.00 -99.000 -99.000 -99.000 
 1981 330    52   6.20  10.00   3.30 -99.000   1.057   0.110   0.946   0.585   0.110   0.475   0.000   0.000   89.74   63.72    3.30   60.42    0.00    0.00 -99.000 -99.000 -99.000 
 1981 331    53   5.70   5.00  -6.70 -99.000   0.784   0.082   0.701   0.541   0.082   0.459   0.000   0.000   90.52   64.26    3.38   60.88    0.00    0.00 -99.000 -99.000 -99.000 
 1981 332    54   5.40   6.10  -1.10 -99.000   0.815   0.085   0.730   0.529   0.085   0.444   0.000   0.000   91.33   64.79    3.47   61.32    0.00    0.00 -99.000 -99.000 -99.000 
 1981 333    55   4.60   9.40  -3.30 -99.000   0.718   0.075   0.643   0.505   0.075   0.430   0.000   0.000   92.05   65.29    3.54   61.75    0.00    0.00 -99.000 -99.000 -99.000 
 1981 334    56   0.70   7.80   3.90 -99.000   0.115   0.012   0.103   0.115   0.012   0.103   0.000   0.000   92.17   65.41    3.56   61.85    0.00    0.00 -99.000 -99.000 -99.000 
 1981 335    57   2.80   4.40   0.00 -99.000   0.322   0.034   0.288   0.322   0.034   0.288   0.000   0.000   92.49   65.73    3.59   62.14    0.00    0.00 -99.000 -99.000 -99.000 
 1981 336    58   8.00   8.90  -1.70 -99.000   1.329   0.139   1.190   1.328   0.139   1.189   0.000   0.000   93.82   67.06    3.73   63.33    0.00    0.00 -99.000 -99.000 -99.000 
 1981 337    59   9.80  10.60  -1.70 -99.000   1.661   0.173   1.487   1.660   0.173   1.486   0.000   0.000   95.48   68.72    3.90   64.82    0.00    0.00 -99.000 -99.000 -99.000 
 1981 338    60   9.90   8.90  -1.10 -99.000   1.629   0.170   1.458   1.627   0.170   1.457   0.000   0.000   97.11   70.35    4.07   66.27    0.00    0.00 -99.000 -99.000 -99.000 
 1981 339    61   3.50  10.60  -2.80 -99.000   0.579   0.060   0.518   0.578   0.060   0.517   0.000   0.000   97.69   70.92    4.13   66.79    0.00    0.00 -99.000 -99.000 -99.000 
 1981 340    62   6.90  16.10   1.70 -99.000   1.311   0.137   1.174   0.866   0.137   0.729   0.000   0.000   99.00   71.79    4.27   67.52    0.00    0.00 -99.000 -99.000 -99.000 
 1981 341    63   9.00  17.80   5.60 -99.000   1.819   0.195   1.624   1.817   0.195   1.622   0.000   0.000  100.82   73.61    4.46   69.14    0.00    0.00 -99.000 -99.000 -99.000 
 1981 342    64   7.90  10.60  -3.30 -99.000   1.287   0.142   1.145   1.286   0.142   1.143   0.000   0.000  102.10   74.89    4.61   70.29    0.00    0.00 -99.000 -99.000 -99.000 
 1981 343    65   8.60   6.70  -2.20 -99.000   1.319   0.146   1.173   1.317   0.146   1.171   0.000   0.000  103.42   76.21    4.75   71.46    0.00    0.00 -99.000 -99.000 -99.000 
 1981 344    66   2.30   2.20  -2.80 -99.000   0.158   0.017   0.140   0.158   0.017   0.140   0.000   0.000  103.58   76.37    4.77   71.60    0.00    0.00 -99.000 -99.000 -99.000 
 1981 345    67   1.80   3.90   1.10 -99.000   0.183   0.020   0.163   0.183   0.020   0.163   0.000   0.000  103.76   76.55    4.79   71.76    0.00    0.00 -99.000 -99.000 -99.000 
 1981 346    68   1.60   3.90   1.70 -99.000   0.164   0.018   0.146   0.164   0.018   0.146   0.000   0.000  103.93   76.71    4.81   71.91    0.00    0.00 -99.000 -99.000 -99.000 
 1981 347    69   1.30   4.40   0.60 -99.000   0.146   0.016   0.130   0.145   0.016   0.129   0.000   0.000  104.07   76.86    4.82   72.03    0.00    0.00 -99.000 -99.000 -99.000 
 1981 348    70   8.40   2.80  -1.70 -99.000   0.665   0.073   0.592   0.664   0.073   0.591   0.000   0.000  104.74   77.52    4.90   72.63    0.00    0.00 -99.000 -99.000 -99.000 
 1981 349    71   4.20   2.20  -2.20 -99.000   0.293   0.032   0.261   0.293   0.032   0.261   0.000   0.000  105.03   77.82    4.93   72.89    0.00    0.00 -99.000 -99.000 -99.000 
 1981 350    72   0.70  -1.10  -8.30 -99.000   0.023   0.003   0.020   0.023   0.003   0.020   0.000   0.000  105.06   77.84    4.93   72.91    0.00    0.00 -99.000 -99.000 -99.000 
 1981 351    73   8.20  -8.30 -16.70 -99.000   0.051   0.006   0.045   0.051   0.006   0.045   0.000   0.000  105.11   77.89    4.94   72.95    0.00    0.00 -99.000 -99.000 -99.000 
 1981 352    74   6.70  -9.40 -17.80 -99.000   0.032   0.002   0.030   0.032   0.002   0.030   0.000   0.000  105.14   77.92    4.94   72.98    0.00    0.00 -99.000 -99.000 -99.000 
 1981 353    75   9.30  -5.00 -17.80 -99.000   0.115   0.002   0.113   0.114   0.002   0.112   0.000   0.000  105.25   78.04    4.94   73.09    0.00    0.00 -99.000 -99.000 -99.000 
 1981 354    76   3.10   2.80 -11.10 -99.000   0.217   0.003   0.214   0.214   0.003   0.211   0.000   0.000  105.47   78.25    4.94   73.31    0.00    0.00 -99.000 -99.000 -99.000 
 1981 355    77   1.60   2.80   1.10 -99.000   0.135   0.002   0.133   0.133   0.002   0.130   0.000   0.001  105.61   78.38    4.95   73.44    0.00    0.00 -99.000 -99.000 -99.000 
 1981 356    78   1.90   2.80   0.60 -99.000   0.160   0.002   0.158   0.157   0.002   0.155   0.000   0.001  105.77   78.54    4.95   73.59    0.00    0.00 -99.000 -99.000 -99.000 
 1981 357    79   9.20   5.00  -7.20 -99.000   1.320   0.016   1.304   1.297   0.016   1.281   0.000   0.001  107.09   79.84    4.96   74.87    0.00    0.00 -99.000 -99.000 -99.000 
 1981 358    80   9.50   7.20  -7.80 -99.000   1.401   0.017   1.384   1.377   0.017   1.360   0.000   0.001  108.49   81.21    4.98   76.23    0.00    0.00 -99.000 -99.000 -99.000 
 1981 359    81   6.70   7.20  -3.90 -99.000   1.032   0.012   1.019   1.014   0.012   1.001   0.000   0.001  109.52   82.23    4.99   77.23    0.00    0.00 -99.000 -99.000 -99.000 
 1981 360    82   7.10   3.30  -6.70 -99.000   0.585   0.007   0.578   0.575   0.007   0.567   0.000   0.001  110.10   82.80    5.00   77.80    0.00    0.01 -99.000 -99.000 -99.000 
 1981 361    83   2.10   2.20  -8.30 -99.000   0.135   0.002   0.134   0.133   0.002   0.131   0.000   0.001  110.24   82.94    5.00   77.93    0.00    0.01 -99.000 -99.000 -99.000 
 1981 362    84   6.80   0.00  -8.90 -99.000   0.278   0.003   0.275   0.274   0.003   0.269   0.000   0.001  110.52   83.21    5.00   78.20    0.00    0.01 -99.000 -99.000 -99.000 
 1981 363    85   9.80   4.40 -11.70 -99.000   0.939   0.012   0.927   0.923   0.012   0.911   0.000   0.001  111.45   84.13    5.02   79.11    0.00    0.01 -99.000 -99.000 -99.000 
 1981 364    86   6.70  10.60  -7.20 -99.000   1.050   0.013   1.037   0.887   0.013   0.873   0.000   0.001  112.51   85.02    5.03   79.98    0.00    0.01 -99.000 -99.000 -99.000 
 1981 365    87   7.20   6.70  -6.70 -99.000   1.051   0.013   1.038   0.795   0.013   0.781   0.000   0.001  113.56   85.81    5.04   80.76    0.00    0.01 -99.000 -99.000 -99.000 
 1982 001    88   2.30  -2.20 -10.00 -99.000   0.058   0.001   0.058   0.058   0.001   0.056   0.000   0.001  113.61   85.87    5.04   80.82    0.00    0.01 -99.000 -99.000 -99.000 
 1982 002    89   1.00   6.10  -4.40 -99.000   0.149   0.002   0.147   0.146   0.002   0.143   0.000   0.001  113.76   86.02    5.04   80.96    0.00    0.01 -99.000 -99.000 -99.000 
 1982 003    90   1.70  -3.30  -9.40 -99.000   0.035   0.000   0.035   0.035   0.000   0.034   0.000   0.001  113.80   86.05    5.05   81.00    0.00    0.01 -99.000 -99.000 -99.000 
 1982 004    91  10.10   2.80 -15.00 -99.000   0.669   0.008   0.660   0.657   0.008   0.648   0.000   0.001  114.47   86.71    5.05   81.65    0.00    0.01 -99.000 -99.000 -99.000 
 1982 005    92   9.60   6.10  -9.40 -99.000   1.374   0.017   1.356   1.351   0.017   1.333   0.000   0.001  115.84   88.06    5.07   82.98    0.00    0.01 -99.000 -99.000 -99.000 
 1982 006    93   4.00  -6.70 -15.00 -99.000   0.037   0.000   0.037   0.036   0.000   0.035   0.000   0.001  115.88   88.10    5.07   83.01    0.00    0.01 -99.000 -99.000 -99.000 
 1982 007    94  10.10  -5.60 -17.20 -99.000   0.113   0.001   0.112   0.111   0.001   0.109   0.000   0.001  115.99   88.21    5.07   83.12    0.00    0.01 -99.000 -99.000 -99.000 
 1982 008    95   7.70   5.00 -10.60 -99.000   1.048   0.008   1.040   1.030   0.008   1.022   0.000   0.001  117.04   89.24    5.08   84.14    0.00    0.01 -99.000 -99.000 -99.000 
 1982 009    96   6.00  -1.70 -15.00 -99.000   0.158   0.001   0.156   0.155   0.001   0.153   0.000   0.001  117.20   89.39    5.08   84.30    0.00    0.02 -99.000 -99.000 -99.000 
 1982 010    97   9.90 -11.10 -26.10 -99.000   0.026   0.000   0.026   0.025   0.000   0.025   0.000   0.000  117.22   89.42    5.08   84.32    0.00    0.02 -99.000 -99.000 -99.000 
 1982 011    98   8.80  -5.60 -21.10 -99.000   0.090   0.000   0.090   0.088   0.000   0.087   0.000   0.001  117.31   89.51    5.08   84.41    0.00    0.02 -99.000 -99.000 -99.000 
 1982 012    99   4.40  -7.20 -11.10 -99.000   0.040   0.000   0.040   0.039   0.000   0.038   0.000   0.001  117.35   89.55    5.08   84.45    0.00    0.02 -99.000 -99.000 -99.000 
 1982 013   100  11.00  -7.80 -21.10 -99.000   0.070   0.000   0.070   0.068   0.000   0.068   0.000   0.001  117.42   89.61    5.08   84.51    0.00    0.02 -99.000 -99.000 -99.000 
 1982 014   101   9.70   8.30 -14.40 -99.000   1.339   0.001   1.338   1.314   0.001   1.312   0.000   0.001  118.76   90.93    5.08   85.83    0.00    0.02 -99.000 -99.000 -99.000 
 1982 015   102   5.90   5.60  -8.30 -99.000   0.843   0.001   0.842   0.827   0.001   0.825   0.000   0.001  119.60   91.76    5.08   86.65    0.00    0.02 -99.000 -99.000 -99.000 
 1982 016   103  11.00  -8.30 -20.00 -99.000   0.064   0.000   0.064   0.063   0.000   0.062   0.000   0.001  119.67   91.82    5.08   86.71    0.00    0.02 -99.000 -99.000 -99.000 
 1982 017   104   8.50  -0.60 -16.70 -99.000   0.273   0.000   0.273   0.268   0.000   0.267   0.000   0.001  119.94   92.09    5.08   86.98    0.00    0.02 -99.000 -99.000 -99.000 
 1982 018   105  10.00   8.90  -8.30 -99.000   1.517   0.001   1.516   1.301   0.001   1.299   0.000   0.001  121.46   93.39    5.08   88.28    0.00    0.02 -99.000 -99.000 -99.000 
 1982 019   106   9.00   7.20  -8.30 -99.000   1.311   0.001   1.310   1.043   0.001   1.041   0.000   0.001  122.77   94.43    5.09   89.32    0.00    0.02 -99.000 -99.000 -99.000 
 1982 020   107   2.10  -1.10  -5.60 -99.000   0.072   0.000   0.072   0.071   0.000   0.070   0.000   0.001  122.84   94.50    5.09   89.39    0.00    0.02 -99.000 -99.000 -99.000 
 1982 021   108   2.10  -2.80  -7.20 -99.000   0.050   0.000   0.050   0.049   0.000   0.048   0.000   0.001  122.89   94.55    5.09   89.44    0.00    0.03 -99.000 -99.000 -99.000 
 1982 022   109   1.70   5.00  -9.40 -99.000   0.233   0.000   0.233   0.229   0.000   0.228   0.000   0.001  123.12   94.78    5.09   89.67    0.00    0.03 -99.000 -99.000 -99.000 
 1982 023   110  11.30  -6.70 -15.00 -99.000   0.105   0.000   0.105   0.103   0.000   0.102   0.000   0.001  123.23   94.88    5.09   89.77    0.00    0.03 -99.000 -99.000 -99.000 
 1982 024   111   7.90  -0.60 -14.40 -99.000   0.265   0.000   0.264   0.260   0.000   0.258   0.000   0.001  123.49   95.14    5.09   90.03    0.00    0.03 -99.000 -99.000 -99.000 
 1982 025   112  11.60   5.60  -7.80 -99.000   1.659   0.001   1.658   1.090   0.001   1.088   0.000   0.001  125.15   96.23    5.09   91.11    0.00    0.03 -99.000 -99.000 -99.000 
 1982 026   113  10.40  11.70  -8.90 -99.000   1.668   0.001   1.667   1.637   0.001   1.635   0.000   0.001  126.82   97.87    5.09   92.75    0.00    0.03 -99.000 -99.000 -99.000 
 1982 027   114  10.10  11.70   4.40 -99.000   1.879   0.001   1.877   1.844   0.001   1.841   0.000   0.001  128.70   99.71    5.09   94.59    0.00    0.03 -99.000 -99.000 -99.000 
 1982 028   115   9.70   6.10  -6.10 -99.000   1.429   0.002   1.427   1.402   0.002   1.399   0.000   0.001  130.13  101.11    5.09   95.99    0.00    0.03 -99.000 -99.000 -99.000 
 1982 029   116   1.00   9.40   1.10 -99.000   0.170   0.000   0.170   0.147   0.000   0.146   0.000   0.001  130.30  101.26    5.09   96.14    0.00    0.03 -99.000 -99.000 -99.000 
 1982 030   117   5.10   3.30  -3.30 -99.000   0.443   0.001   0.443   0.435   0.001   0.434   0.000   0.001  130.74  101.70    5.09   96.57    0.00    0.03 -99.000 -99.000 -99.000 
 1982 031   118   5.10  -2.80 -11.70 -99.000   0.115   0.000   0.115   0.113   0.000   0.112   0.000   0.001  130.86  101.81    5.09   96.68    0.00    0.04 -99.000 -99.000 -99.000 
 1982 032   119   4.90   3.30  -7.20 -99.000   0.411   0.001   0.410   0.403   0.001   0.401   0.000   0.001  131.27  102.21    5.09   97.08    0.00    0.04 -99.000 -99.000 -99.000 
 1982 033   120   3.30   0.00  -7.80 -99.000   0.140   0.000   0.140   0.137   0.000   0.136   0.000   0.001  131.41  102.35    5.09   97.22    0.00    0.04 -99.000 -99.000 -99.000 
 1982 034   121  11.90  -7.80 -18.30 -99.000   0.081   0.000   0.081   0.080   0.000   0.079   0.000   0.001  131.49  102.43    5.09   97.30    0.00    0.04 -99.000 -99.000 -99.000 
 1982 035   122   4.90 -13.90 -20.00 -99.000   0.008   0.000   0.008   0.008   0.000   0.008   0.000   0.000  131.50  102.44    5.09   97.31    0.00    0.04 -99.000 -99.000 -99.000 
 1982 036   123  13.70 -12.80 -18.30 -99.000   0.031   0.000   0.031   0.031   0.000   0.030   0.000   0.001  131.53  102.47    5.09   97.34    0.00    0.04 -99.000 -99.000 -99.000 
 1982 037   124  14.70  -4.40 -23.30 -99.000   0.186   0.000   0.186   0.183   0.000   0.182   0.000   0.001  131.72  102.65    5.09   97.52    0.00    0.04 -99.000 -99.000 -99.000 
 1982 038   125  14.20   2.20 -15.00 -99.000   0.841   0.001   0.841   0.825   0.001   0.824   0.000   0.001  132.56  103.48    5.09   98.34    0.00    0.04 -99.000 -99.000 -99.000 
 1982 039   126   5.10  -6.10 -10.00 -99.000   0.060   0.000   0.060   0.059   0.000   0.057   0.000   0.001  132.62  103.53    5.09   98.40    0.00    0.04 -99.000 -99.000 -99.000 
 1982 040   127  14.50  -9.40 -19.40 -99.000   0.068   0.000   0.068   0.067   0.000   0.066   0.000   0.001  132.69  103.60    5.09   98.47    0.00    0.04 -99.000 -99.000 -99.000 
 1982 041   128  11.60  -4.40 -18.90 -99.000   0.162   0.000   0.162   0.159   0.000   0.158   0.000   0.001  132.85  103.76    5.09   98.62    0.00    0.04 -99.000 -99.000 -99.000 
 1982 042   129  10.50   0.00 -17.80 -99.000   0.377   0.000   0.377   0.370   0.000   0.369   0.000   0.001  133.22  104.13    5.09   98.99    0.00    0.04 -99.000 -99.000 -99.000 
 1982 043   130   7.70   1.70  -6.10 -99.000   0.472   0.000   0.472   0.464   0.000   0.462   0.000   0.001  133.70  104.59    5.09   99.46    0.00    0.05 -99.000 -99.000 -99.000 
 1982 044   131  15.70   3.90 -12.20 -99.000   1.384   0.001   1.383   1.358   0.001   1.356   0.000   0.001  135.08  105.95    5.09  100.81    0.00    0.05 -99.000 -99.000 -99.000 
 1982 045   132  12.30   6.70  -1.10 -99.000   1.977   0.001   1.975   1.939   0.001   1.937   0.000   0.001  137.06  107.89    5.10  102.75    0.00    0.05 -99.000 -99.000 -99.000 
 1982 046   133   4.20   7.20   2.20 -99.000   0.706   0.001   0.706   0.693   0.001   0.691   0.000   0.001  137.76  108.58    5.10  103.44    0.00    0.05 -99.000 -99.000 -99.000 
 1982 047   134   2.30   5.00   2.20 -99.000   0.371   0.000   0.370   0.364   0.000   0.362   0.000   0.001  138.14  108.95    5.10  103.80    0.00    0.05 -99.000 -99.000 -99.000 
 1982 048   135   1.80   3.90   1.10 -99.000   0.189   0.000   0.188   0.185   0.000   0.184   0.000   0.001  138.32  109.13    5.10  103.99    0.00    0.05 -99.000 -99.000 -99.000 
 1982 049   136  10.50  12.80   1.10 -99.000   1.915   0.002   1.913   1.879   0.002   1.876   0.000   0.001  140.24  111.01    5.10  105.86    0.00    0.05 -99.000 -99.000 -99.000 
 1982 050   137  14.70  18.90  -1.10 -99.000   2.887   0.004   2.883   2.833   0.004   2.828   0.000   0.001  143.13  113.85    5.10  108.69    0.00    0.05 -99.000 -99.000 -99.000 
 1982 051   138  15.60  18.90   3.30 -99.000   3.147   0.006   3.141   1.974   0.006   1.967   0.000   0.001  146.27  115.82    5.11  110.66    0.00    0.05 -99.000 -99.000 -99.000 
 1982 052   139  15.20  21.10  -1.10 -99.000   3.011   0.007   3.004   2.215   0.007   2.207   0.000   0.001  149.28  118.03    5.12  112.86    0.00    0.05 -99.000 -99.000 -99.000 
 1982 053   140  15.60  25.60  -1.10 -99.000   3.264   0.009   3.254   1.356   0.009   1.346   0.000   0.001  152.55  119.39    5.12  114.21    0.00    0.06 -99.000 -99.000 -99.000 
 1982 054   141   1.80  17.80   1.10 -99.000   0.343   0.001   0.342   0.336   0.001   0.334   0.000   0.001  152.89  119.73    5.13  114.54    0.00    0.06 -99.000 -99.000 -99.000 
 1982 055   142  16.10   6.70   0.00 -99.000   2.530   0.010   2.520   1.021   0.010   1.010   0.000   0.001  155.42  120.75    5.14  115.55    0.00    0.06 -99.000 -99.000 -99.000 
 1982 056   143  11.60   2.20  -5.00 -99.000   0.771   0.003   0.767   0.757   0.003   0.752   0.000   0.001  156.19  121.50    5.14  116.31    0.00    0.06 -99.000 -99.000 -99.000 
 1982 057   144  16.90   3.90  -7.80 -99.000   1.519   0.007   1.512   0.801   0.007   0.794   0.000   0.001  157.71  122.31    5.15  117.10    0.00    0.06 -99.000 -99.000 -99.000 
 1982 058   145  15.40  11.10  -7.80 -99.000   2.374   0.011   2.363   0.734   0.011   0.723   0.000   0.001  160.08  123.04    5.16  117.82    0.00    0.06 -99.000 -99.000 -99.000 
 1982 059   146  12.30  13.30  -3.90 -99.000   2.061   0.010   2.051   0.679   0.010   0.668   0.000   0.001  162.14  123.72    5.17  118.49    0.00    0.06 -99.000 -99.000 -99.000 
 1982 060   147  16.20  20.60  -3.90 -99.000   3.047   0.018   3.029   0.643   0.018   0.624   0.000   0.001  165.19  124.36    5.19  119.11    0.00    0.06 -99.000 -99.000 -99.000 
 1982 061   148   4.50  15.60   1.70 -99.000   0.830   0.006   0.823   0.595   0.006   0.588   0.000   0.001  166.02  124.96    5.19  119.70    0.00    0.06 -99.000 -99.000 -99.000 
 1982 062   149   0.80   1.70  -2.20 -99.000   0.050   0.000   0.049   0.049   0.000   0.048   0.000   0.001  166.07  125.00    5.19  119.75    0.00    0.06 -99.000 -99.000 -99.000 
 1982 063   150   5.70  -1.70  -5.60 -99.000   0.170   0.001   0.169   0.167   0.001   0.165   0.000   0.001  166.24  125.17    5.19  119.91    0.00    0.06 -99.000 -99.000 -99.000 
 1982 064   151   8.70  -2.20  -6.10 -99.000   0.233   0.002   0.231   0.229   0.002   0.226   0.000   0.001  166.47  125.40    5.19  120.14    0.00    0.06 -99.000 -99.000 -99.000 
 1982 065   152  18.90   6.10 -12.20 -99.000   2.491   0.020   2.471   1.044   0.020   1.023   0.000   0.001  168.97  126.44    5.22  121.16    0.00    0.06 -99.000 -99.000 -99.000 
 1982 066   153  12.70   3.90 -10.00 -99.000   1.105   0.009   1.096   0.523   0.009   0.513   0.000   0.001  170.07  126.97    5.22  121.68    0.00    0.07 -99.000 -99.000 -99.000 
 1982 067   154  17.90   8.90  -3.90 -99.000   2.779   0.023   2.756   0.516   0.023   0.492   0.000   0.001  172.85  127.48    5.25  122.17    0.00    0.07 -99.000 -99.000 -99.000 
 1982 068   155  13.50  10.60  -7.80 -99.000   2.060   0.019   2.041   0.493   0.019   0.474   0.000   0.001  174.91  127.98    5.27  122.64    0.00    0.07 -99.000 -99.000 -99.000 
 1982 069   156  16.20  26.10  -3.90 -99.000   3.302   0.031   3.271   0.489   0.031   0.457   0.000   0.001  178.21  128.46    5.30  123.10    0.00    0.07 -99.000 -99.000 -99.000 
 1982 070   157  13.60  19.40   0.60 -99.000   2.627   0.031   2.596   0.474   0.031   0.442   0.000   0.001  180.84  128.94    5.33  123.54    0.00    0.07 -99.000 -99.000 -99.000 
 1982 071   158   7.60  22.80   2.80 -99.000   1.571   0.023   1.548   0.453   0.023   0.429   0.000   0.001  182.41  129.39    5.35  123.97    0.00    0.07 -99.000 -99.000 -99.000 
 1982 072   159  17.00  17.80  -1.70 -99.000   3.128   0.052   3.076   0.469   0.052   0.416   0.000   0.001  185.54  129.86    5.40  124.39    0.00    0.07 -99.000 -99.000 -99.000 
 1982 073   160   1.40  10.60   5.00 -99.000   0.246   0.005   0.241   0.242   0.005   0.236   0.000   0.001  185.78  130.10    5.41  124.62    0.00    0.07 -99.000 -99.000 -99.000 
 1982 074   161   5.60  15.00   5.00 -99.000   1.059   0.023   1.036   1.040   0.023   1.016   0.000   0.001  186.84  131.14    5.43  125.64    0.00    0.07 -99.000 -99.000 -99.000 
 1982 075   162  19.40  18.90   7.20 -99.000   4.137   0.098   4.039   4.061   0.098   3.962   0.000   0.001  190.98  135.20    5.53  129.60    0.00    0.07 -99.000 -99.000 -99.000 
 1982 076   163  17.70  23.90   3.90 -99.000   3.841   0.120   3.722   2.726   0.120   2.606   0.000   0.001  194.82  137.93    5.65  132.21    0.00    0.08 -99.000 -99.000 -99.000 
 1982 077   164   2.10  11.70   7.80 -99.000   0.392   0.016   0.377   0.385   0.016   0.369   0.000   0.001  195.21  138.31    5.66  132.57    0.00    0.08 -99.000 -99.000 -99.000 
 1982 078   165  16.60  23.90   8.30 -99.000   3.709   0.153   3.556   3.642   0.153   3.488   0.000   0.001  198.92  141.96    5.82  136.06    0.00    0.08 -99.000 -99.000 -99.000 
 1982 079   166  21.20  14.40   2.20 -99.000   3.964   0.206   3.758   3.024   0.206   2.816   0.000   0.001  202.89  144.98    6.02  138.88    0.00    0.08 -99.000 -99.000 -99.000 
 1982 080   167  20.00   8.90  -3.90 -99.000   3.133   0.206   2.927   2.638   0.206   2.431   0.000   0.001  206.02  147.62    6.23  141.31    0.00    0.08 -99.000 -99.000 -99.000 
 1982 081   168  21.90  12.80  -5.00 -99.000   3.595   0.241   3.354   1.625   0.241   1.384   0.000   0.001  209.61  149.24    6.47  142.69    0.00    0.08 -99.000 -99.000 -99.000 
 1982 082   169  11.40  13.90   1.70 -99.000   2.044   0.143   1.901   1.226   0.143   1.082   0.000   0.001  211.66  150.47    6.61  143.78    0.00    0.08 -99.000 -99.000 -99.000 
 1982 083   170  17.10  13.90  -0.60 -99.000   2.982   0.249   2.732   1.170   0.249   0.920   0.000   0.001  214.64  151.64    6.86  144.69    0.00    0.08 -99.000 -99.000 -99.000 
 1982 084   171  21.50   8.30  -0.60 -99.000   3.402   0.318   3.083   2.497   0.318   2.179   0.000   0.001  218.04  154.14    7.18  146.87    0.00    0.08 -99.000 -99.000 -99.000 
 1982 085   172  21.60  12.20  -6.10 -99.000   3.484   0.339   3.145   1.442   0.339   1.102   0.000   0.001  221.53  155.58    7.52  147.98    0.00    0.08 -99.000 -99.000 -99.000 
 1982 086   173  17.60  11.10   0.00 -99.000   2.974   0.297   2.677   1.229   0.297   0.932   0.000   0.001  224.50  156.81    7.82  148.91    0.00    0.09 -99.000 -99.000 -99.000 
 1982 087   174  12.60  12.20   1.70 -99.000   2.200   0.237   1.963   1.060   0.237   0.822   0.000   0.001  226.70  157.87    8.05  149.73    0.00    0.09 -99.000 -99.000 -99.000 
 1982 088   175   8.20  15.60   5.00 -99.000   1.556   0.187   1.369   0.932   0.187   0.744   0.000   0.001  228.26  158.80    8.24  150.47    0.00    0.09 -99.000 -99.000 -99.000 
 1982 089   176  19.30  20.00  10.00 -99.000   4.065   0.579   3.485   1.776   0.579   1.196   0.000   0.001  232.32  160.58    8.82  151.67    0.00    0.09 -99.000 -99.000 -99.000 
 1982 090   177  23.20  20.00   1.70 -99.000   4.527   0.788   3.738   1.496   0.788   0.707   0.000   0.001  236.85  162.07    9.61  152.38    0.00    0.09 -99.000 -99.000 -99.000 
 1982 091   178  21.70  26.70   1.10 -99.000   4.597   0.885   3.711   1.542   0.885   0.656   0.000   0.001  241.45  163.61   10.49  153.03    0.00    0.09 -99.000 -99.000 -99.000 
 1982 092   179  17.20  27.20   6.70 -99.000   3.831   0.821   3.009   1.436   0.821   0.614   0.000   0.001  245.28  165.05   11.31  153.65    0.00    0.09 -99.000 -99.000 -99.000 
 1982 093   180  23.20  15.00   0.00 -99.000   4.074   0.971   3.102   1.551   0.971   0.579   0.000   0.001  249.35  166.60   12.28  154.23    0.00    0.09 -99.000 -99.000 -99.000 
 1982 094   181  17.80  11.10  -0.60 -99.000   2.907   0.711   2.195   1.262   0.711   0.550   0.000   0.001  252.26  167.86   12.99  154.78    0.00    0.09 -99.000 -99.000 -99.000 
 1982 095   182   8.90   7.80  -0.60 -99.000   1.370   0.340   1.030   1.350   0.340   1.009   0.000   0.001  253.63  169.21   13.33  155.79    0.00    0.09 -99.000 -99.000 -99.000 
 1982 096   183  16.50   5.60  -7.20 -99.000   2.301   0.575   1.725   1.547   0.575   0.970   0.000   0.001  255.93  170.76   13.91  156.76    0.00    0.09 -99.000 -99.000 -99.000 
 1982 097   184   4.70   6.10   0.00 -99.000   0.722   0.180   0.541   0.711   0.180   0.530   0.000   0.001  256.65  171.47   14.09  157.29    0.00    0.10 -99.000 -99.000 -99.000 
 1982 098   185  11.20   9.40  -0.60 -99.000   1.805   0.454   1.350   1.779   0.454   1.324   0.000   0.001  258.45  173.25   14.54  158.61    0.00    0.10 -99.000 -99.000 -99.000 
 1982 099   186  24.50  13.90  -5.60 -99.000   4.016   1.024   2.991   1.769   1.024   0.745   0.000   0.001  262.47  175.02   15.57  159.35    0.00    0.10 -99.000 -99.000 -99.000 
 1982 100   187  23.80  15.60   1.70 -99.000   4.321   1.115   3.205   1.801   1.115   0.685   0.000   0.001  266.79  176.82   16.68  160.04    0.00    0.10 -99.000 -99.000 -99.000 
 1982 101   188  22.60  22.80   4.40 -99.000   4.648   1.262   3.385   1.900   1.262   0.638   0.000   0.001  271.44  178.72   17.94  160.68    0.00    0.10 -99.000 -99.000 -99.000 
 1982 102   189  24.00  29.40  11.10 -99.000   5.642   1.662   3.979   2.262   1.662   0.599   0.000   0.001  277.08  180.98   19.61  161.28    0.00    0.10 -99.000 -99.000 -99.000 
 1982 103   190  23.90  23.90   8.30 -99.000   5.104   1.657   3.445   2.225   1.657   0.567   0.000   0.001  282.19  183.21   21.26  161.84    0.00    0.10 -99.000 -99.000 -99.000 
 1982 104   191  23.80  30.60  11.70 -99.000   5.645   1.953   3.690   2.493   1.953   0.539   0.000   0.001  287.83  185.70   23.22  162.38    0.00    0.10 -99.000 -99.000 -99.000 
 1982 105   192  17.00  30.60  17.80 -99.000   4.204   1.554   2.648   2.070   1.554   0.515   0.000   0.001  292.03  187.77   24.77  162.90    0.00    0.10 -99.000 -99.000 -99.000 
 1982 106   193   8.00  26.70  10.00 -99.000   1.774   0.686   1.087   1.180   0.685   0.494   0.000   0.001  293.81  188.95   25.46  163.39    0.00    0.10 -99.000 -99.000 -99.000 
 1982 107   194  25.90  17.20   2.80 -99.000   4.722   1.907   2.813   2.384   1.907   0.476   0.000   0.001  298.53  191.34   27.36  163.87    0.00    0.10 -99.000 -99.000 -99.000 
 1982 108   195  24.30  23.30   1.10 -99.000   4.746   1.964   2.779   2.424   1.964   0.459   0.000   0.001  303.28  193.76   29.33  164.33    0.00    0.11 -99.000 -99.000 -99.000 
 1982 109   196  23.60  20.00  10.60 -99.000   4.790   2.039   2.749   2.208   2.039   0.168   0.000   0.001  308.07  195.97   31.37  164.49    0.00    0.11 -99.000 -99.000 -99.000 
 1982 110   197  24.50  13.30   0.00 -99.000   4.098   1.803   2.293   2.349   1.803   0.546   0.000   0.001  312.16  198.32   33.17  165.04    0.00    0.11 -99.000 -99.000 -99.000 
 1982 111   198  22.50  16.10  -2.20 -99.000   3.835   1.701   2.132   2.223   1.701   0.521   0.000   0.001  316.00  200.54   34.87  165.56    0.00    0.11 -99.000 -99.000 -99.000 
 1982 112   199  26.40  17.20   0.00 -99.000   4.672   2.091   2.579   2.591   2.091   0.499   0.000   0.001  320.67  203.13   36.96  166.06    0.00    0.11 -99.000 -99.000 -99.000 
 1982 113   200  22.70  21.70   1.70 -99.000   4.353   1.976   2.374   2.454   1.973   0.480   0.000   0.001  325.02  205.59   38.93  166.54    0.00    0.11 -99.000 -99.000 -99.000 
 1982 114   201  19.80  22.20  10.60 -99.000   4.129   1.918   2.210   2.382   1.918   0.463   0.000   0.001  329.15  207.97   40.85  167.00    0.00    0.11 -99.000 -99.000 -99.000 
 1982 115   202  12.20  17.20   8.90 -99.000   2.337   1.118   1.218   1.559   1.118   0.440   0.000   0.001  331.49  209.53   41.97  167.44    0.00    0.11 -99.000 -99.000 -99.000 
 1982 116   203  25.70  21.10   7.20 -99.000   5.109   2.498   2.608   2.948   2.498   0.449   0.000   0.001  336.60  212.47   44.47  167.89    0.00    0.11 -99.000 -99.000 -99.000 
 1982 117   204   7.60  15.60   5.60 -99.000   1.374   0.686   0.687   0.823   0.686   0.136   0.000   0.001  337.97  213.30   45.15  168.03    0.00    0.12 -99.000 -99.000 -99.000 
 1982 118   205   1.50  10.60   6.10 -99.000   0.252   0.128   0.124   0.170   0.128   0.041   0.000   0.001  338.23  213.47   45.28  168.07    0.00    0.12 -99.000 -99.000 -99.000 
 1982 119   206   6.80  13.30   6.70 -99.000   1.213   0.620   0.592   1.199   0.620   0.578   0.000   0.001  339.44  214.67   45.90  168.65    0.00    0.12 -99.000 -99.000 -99.000 
 1982 120   207  10.50  17.20  10.60 -99.000   2.088   1.083   1.004   2.065   1.083   0.981   0.000   0.001  341.53  216.73   46.98  169.63    0.00    0.12 -99.000 -99.000 -99.000 
 1982 121   208  13.70  20.60  11.70 -99.000   2.862   1.513   1.347   2.831   1.513   1.316   0.000   0.001  344.39  219.56   48.50  170.94    0.00    0.12 -99.000 -99.000 -99.000 
 1982 122   209  17.40  23.30  12.80 -99.000   3.773   2.041   1.731   3.733   2.041   1.691   0.000   0.001  348.16  223.30   50.54  172.64    0.00    0.12 -99.000 -99.000 -99.000 
 1982 123   210  19.70  28.30  15.60 -99.000   4.606   2.547   2.057   4.047   2.547   1.499   0.000   0.001  352.77  227.34   53.09  174.13    0.00    0.12 -99.000 -99.000 -99.000 
 1982 124   211  22.90  30.60  18.30 -99.000   5.571   3.148   2.421   5.393   3.107   2.285   0.000   0.001  358.34  232.74   56.19  176.42    0.00    0.12 -99.000 -99.000 -99.000 
 1982 125   212   5.30  26.10  10.00 -99.000   1.140   0.656   0.484   0.913   0.656   0.257   0.000   0.001  359.48  233.65   56.85  176.68    0.00    0.13 -99.000 -99.000 -99.000 
 1982 126   213  14.20  15.00   6.70 -99.000   2.550   1.496   1.052   1.684   1.496   0.186   0.000   0.001  362.03  235.33   58.34  176.86    0.00    0.13 -99.000 -99.000 -99.000 
 1982 127   214  26.50  23.30   5.60 -99.000   5.417   3.215   2.199   5.361   3.215   2.145   0.000   0.002  367.45  240.69   61.56  179.01    0.00    0.13 -99.000 -99.000 -99.000 
 1982 128   215  27.10  27.80  13.30 -99.000   6.200   3.736   2.460   6.138   3.736   2.400   0.000   0.002  373.64  246.83   65.30  181.41    0.00    0.13 -99.000 -99.000 -99.000 
 1982 129   216  24.40  28.30  16.70 -99.000   5.719   3.520   2.196   4.989   3.520   1.467   0.000   0.002  379.36  251.82   68.82  182.87    0.00    0.13 -99.000 -99.000 -99.000 
 1982 130   217  17.90  27.20  17.80 -99.000   4.158   2.608   1.548   4.118   2.608   1.508   0.000   0.002  383.52  255.94   71.42  184.38    0.00    0.13 -99.000 -99.000 -99.000 
 1982 131   218  22.20  28.90  15.00 -99.000   5.134   3.193   1.939   5.083   3.193   1.889   0.000   0.002  388.66  261.02   74.62  186.27    0.00    0.14 -99.000 -99.000 -99.000 
 1982 132   219  10.20  22.80  15.00 -99.000   2.193   1.352   0.840   2.170   1.352   0.817   0.000   0.002  390.85  263.19   75.97  187.09    0.00    0.14 -99.000 -99.000 -99.000 
 1982 133   220  10.80  23.30  16.70 -99.000   2.414   1.477   0.936   2.389   1.477   0.910   0.000   0.002  393.26  265.58   77.45  188.00    0.00    0.14 -99.000 -99.000 -99.000 
 1982 134   221  11.60  22.20  13.30 -99.000   2.481   1.506   0.974   2.456   1.506   0.948   0.000   0.002  395.74  268.04   78.95  188.95    0.00    0.14 -99.000 -99.000 -99.000 
 1982 135   222  26.60  24.40  11.10 -99.000   5.744   3.461   2.280   5.684   3.461   2.221   0.000   0.002  401.49  273.72   82.41  191.17    0.00    0.14 -99.000 -99.000 -99.000 
 1982 136   223  11.40  23.30  15.60 -99.000   2.518   1.506   1.010   2.492   1.506   0.983   0.000   0.002  404.01  276.21   83.92  192.15    0.00    0.14 -99.000 -99.000 -99.000 
 1982 137   224  16.50  23.90  15.00 -99.000   3.664   2.175   1.488   3.625   2.175   1.449   0.000   0.002  407.67  279.84   86.09  193.60    0.00    0.15 -99.000 -99.000 -99.000 
 1982 138   225  25.10  27.80  12.80 -99.000   5.743   3.381   2.359   5.681   3.381   2.299   0.000   0.002  413.41  285.52   89.47  195.90    0.00    0.15 -99.000 -99.000 -99.000 
 1982 139   226  23.50  30.00  17.20 -99.000   5.685   3.318   2.364   5.623   3.318   2.303   0.000   0.002  419.10  291.14   92.79  198.20    0.00    0.15 -99.000 -99.000 -99.000 
 1982 140   227  14.10  26.10  16.10 -99.000   3.218   1.859   1.357   2.813   1.859   0.952   0.000   0.002  422.32  293.96   94.65  199.15    0.00    0.15 -99.000 -99.000 -99.000 
 1982 141   228  20.90  23.30  12.80 -99.000   4.484   2.571   1.910   4.434   2.571   1.861   0.000   0.002  426.80  298.39   97.22  201.01    0.00    0.15 -99.000 -99.000 -99.000 
 1982 142   229  16.90  20.60  11.70 -99.000   3.513   2.001   1.510   3.473   2.001   1.470   0.000   0.002  430.31  301.86   99.22  202.48    0.00    0.15 -99.000 -99.000 -99.000 
 1982 143   230  23.10  24.40  11.70 -99.000   5.028   2.848   2.178   4.971   2.848   2.121   0.000   0.002  435.34  306.83  102.07  204.60    0.00    0.16 -99.000 -99.000 -99.000 
 1982 144   231   9.20  21.70  15.60 -99.000   1.990   1.119   0.869   1.647   1.119   0.526   0.000   0.002  437.33  308.48  103.19  205.13    0.00    0.16 -99.000 -99.000 -99.000 
 1982 145   232  13.70  23.30  16.70 -99.000   3.049   1.704   1.343   3.014   1.704   1.308   0.000   0.002  440.38  311.49  104.90  206.44    0.00    0.16 -99.000 -99.000 -99.000 
 1982 146   233  25.30  21.10  11.70 -99.000   5.315   2.948   2.363   5.253   2.948   2.302   0.000   0.002  445.69  316.75  107.84  208.74    0.00    0.16 -99.000 -99.000 -99.000 
 1982 147   234  28.10  26.70  10.00 -99.000   6.219   3.430   2.787   6.146   3.430   2.715   0.000   0.002  451.91  322.89  111.27  211.46    0.00    0.16 -99.000 -99.000 -99.000 
 1982 148   235  15.50  28.90  17.80 -99.000   3.743   2.051   1.691   3.699   2.051   1.647   0.000   0.002  455.66  326.59  113.32  213.10    0.00    0.17 -99.000 -99.000 -99.000 
 1982 149   236  22.90  26.70  16.10 -99.000   5.304   2.881   2.421   5.241   2.881   2.359   0.000   0.002  460.96  331.83  116.20  215.46    0.00    0.17 -99.000 -99.000 -99.000 
 1982 150   237  17.60  26.10  15.00 -99.000   4.039   2.176   1.861   3.990   2.176   1.812   0.000   0.002  465.00  335.82  118.38  217.27    0.00    0.17 -99.000 -99.000 -99.000 
 1982 151   238  14.30  22.20  13.30 -99.000   3.079   1.655   1.423   3.042   1.655   1.386   0.000   0.002  468.08  338.87  120.04  218.66    0.00    0.17 -99.000 -99.000 -99.000 
 1982 152   239  28.40  20.60   5.00 -99.000   5.595   2.999   2.593   5.527   2.999   2.526   0.000   0.002  473.67  344.39  123.04  221.18    0.00    0.17 -99.000 -99.000 -99.000 
 1982 153   240  10.80  18.30  12.20 -99.000   2.183   1.168   1.014   2.157   1.168   0.987   0.000   0.002  475.86  346.55  124.20  222.17    0.00    0.17 -99.000 -99.000 -99.000 
 1982 154   241   7.50  17.80  12.20 -99.000   1.510   0.798   0.711   1.491   0.798   0.691   0.000   0.002  477.37  348.04  125.00  222.86    0.00    0.18 -99.000 -99.000 -99.000 
 1982 155   242  14.30  21.10  12.80 -99.000   3.030   1.578   1.450   2.992   1.578   1.412   0.000   0.002  480.40  351.03  126.58  224.27    0.00    0.18 -99.000 -99.000 -99.000 
 1982 156   243  21.30  23.30  12.20 -99.000   4.632   2.376   2.254   4.573   2.376   2.195   0.000   0.002  485.03  355.61  128.96  226.47    0.00    0.18 -99.000 -99.000 -99.000 
 1982 157   244  18.70  31.10  20.00 -99.000   4.699   2.369   2.329   3.770   2.369   1.399   0.000   0.002  489.73  359.38  131.32  227.87    0.00    0.18 -99.000 -99.000 -99.000 
 1982 158   245  25.50  28.30  12.20 -99.000   5.837   2.886   2.949   5.761   2.886   2.873   0.000   0.002  495.56  365.14  134.21  230.74    0.00    0.18 -99.000 -99.000 -99.000 
 1982 159   246  20.50  32.20  19.40 -99.000   5.239   2.516   2.721   4.959   2.516   2.441   0.000   0.002  500.80  370.10  136.73  233.18    0.00    0.18 -99.000 -99.000 -99.000 
 1982 160   247  24.80  28.30  17.20 -99.000   5.938   2.783   3.153   5.856   2.783   3.072   0.000   0.002  506.74  375.95  139.51  236.26    0.00    0.19 -99.000 -99.000 -99.000 
 1982 161   248  29.10  24.40   8.30 -99.000   6.251   2.835   3.413   5.604   2.835   2.767   0.000   0.002  512.99  381.56  142.34  239.02    0.00    0.19 -99.000 -99.000 -99.000 
 1982 162   249  11.90  21.70  14.40 -99.000   2.582   1.136   1.445   2.544   1.136   1.407   0.000   0.002  515.57  384.10  143.48  240.43    0.00    0.19 -99.000 -99.000 -99.000 
 1982 163   250  22.90  25.60  13.90 -99.000   5.185   2.195   2.988   4.109   2.195   1.913   0.000   0.002  520.76  388.21  145.68  242.34    0.00    0.19 -99.000 -99.000 -99.000 
 1982 164   251  16.70  26.70  15.00 -99.000   3.850   1.561   2.288   2.839   1.561   1.277   0.000   0.002  524.61  391.05  147.24  243.62    0.00    0.19 -99.000 -99.000 -99.000 
 1982 165   252  13.80  30.00  17.80 -99.000   3.372   1.303   2.069   2.624   1.301   1.321   0.000   0.002  527.98  393.67  148.54  244.94    0.00    0.19 -99.000 -99.000 -99.000 
 1982 166   253  21.60  27.80  17.20 -99.000   5.130   1.878   3.251   2.874   1.878   0.994   0.000   0.002  533.11  396.55  150.41  245.94    0.00    0.20 -99.000 -99.000 -99.000 
 1982 167   254  29.70  24.40  12.80 -99.000   6.789   2.331   4.455   6.675   2.331   4.342   0.000   0.002  539.90  403.22  152.75  250.28    0.00    0.20 -99.000 -99.000 -99.000 
 1982 168   255  21.70  28.90  13.30 -99.000   5.168   1.662   3.505   3.778   1.662   2.114   0.000   0.002  545.07  407.00  154.41  252.39    0.00    0.20 -99.000 -99.000 -99.000 
 1982 169   256  17.60  24.40  17.80 -99.000   4.102   1.240   2.861   4.029   1.240   2.787   0.000   0.002  549.17  411.03  155.65  255.18    0.00    0.20 -99.000 -99.000 -99.000 
 1982 170   257  26.70  25.60  12.80 -99.000   6.045   1.699   4.345   3.030   1.699   1.329   0.000   0.002  555.21  414.06  157.35  256.51    0.00    0.20 -99.000 -99.000 -99.000 
 1982 171   258  27.20  29.40  16.10 -99.000   6.601   1.713   4.887   2.768   1.711   1.056   0.000   0.002  561.82  416.83  159.06  257.56    0.00    0.21 -99.000 -99.000 -99.000 
 1982 172   259  21.70  30.00  14.40 -99.000   5.233   1.252   3.980   2.036   1.252   0.782   0.000   0.002  567.05  418.86  160.31  258.35    0.00    0.21 -99.000 -99.000 -99.000 
 1982 173   260  28.00  27.80  13.90 -99.000   6.563   1.417   5.145   1.890   1.417   0.471   0.000   0.002  573.61  420.75  161.73  258.82    0.00    0.21 -99.000 -99.000 -99.000 
 1982 174   261  16.50  26.70  16.70 -99.000   4.101   0.791   3.310   4.018   0.791   3.225   0.000   0.002  577.71  424.77  162.52  262.04    0.00    0.21 -99.000 -99.000 -99.000 

*DSSAT Cropping System Model Ver. 4.8.5.000 -release  SEP 11, 2025 14:40:06

*RUN   2        : DRYLAND  - 60 KG N/HA     CSCER048 KSAS8101    2
 MODEL          : CSCER048 - Wheat
 EXPERIMENT     : KSAS8101 WH N RESPONSE,KANSAS STATE  3FE(N)*2IR  (DSSAT3)
 DATA PATH      :
 TREATMENT  2   : DRYLAND  - 60 KG N/HA     CSCER048
  
@YEAR DOY   DAS   SRAA  TMAXA  TMINA    REFA    EOAA    EOPA    EOSA    ETAA    EPAA    ESAA    EFAA    EMAA    EOAC    ETAC    EPAC    ESAC    EFAC    EMAC    KCAA    KBSA    KEAA
 1981 279     1  16.50  18.90   9.40 -99.000   3.614   0.000   3.614   3.614   0.000   3.614   0.000   0.000    3.61    3.61    0.00    3.61    0.00    0.00 -99.000 -99.000 -99.000 
 1981 280     2  12.30  17.80   6.10 -99.000   2.515   0.000   2.515   1.663   0.000   1.663   0.000   0.000    6.13    5.28    0.00    5.28    0.00    0.00 -99.000 -99.000 -99.000 
 1981 281     3  13.70  18.90   2.80 -99.000   2.737   0.000   2.737   2.449   0.000   2.449   0.000   0.000    8.87    7.73    0.00    7.73    0.00    0.00 -99.000 -99.000 -99.000 
 1981 282     4   3.20  15.60  12.80 -99.000   0.662   0.000   0.662   0.662   0.000   0.662   0.000   0.000    9.53    8.39    0.00    8.39    0.00    0.00 -99.000 -99.000 -99.000 
 1981 283     5  11.60  18.30   7.20 -99.000   2.365   0.000   2.365   1.102   0.000   1.102   0.000   0.000   11.89    9.49    0.00    9.49    0.00    0.00 -99.000 -99.000 -99.000 
 1981 284     6   4.40  18.30   7.80 -99.000   0.898   0.000   0.898   0.476   0.000   0.476   0.000   0.000   12.79    9.97    0.00    9.97    0.00    0.00 -99.000 -99.000 -99.000 
 1981 285     7   1.70  18.30  13.90 -99.000   0.367   0.000   0.367   0.354   0.000   0.354   0.000   0.000   13.16   10.32    0.00   10.32    0.00    0.00 -99.000 -99.000 -99.000 
 1981 286     8   1.80  20.60  17.80 -99.000   0.430   0.000   0.430   0.430   0.000   0.430   0.000   0.000   13.59   10.75    0.00   10.75    0.00    0.00 -99.000 -99.000 -99.000 
 1981 287     9   6.80  20.60  13.30 -99.000   1.560   0.000   1.560   1.476   0.000   1.476   0.000   0.000   15.15   12.23    0.00   12.23    0.00    0.00 -99.000 -99.000 -99.000 
 1981 288    10   6.40  17.20   9.40 -99.000   1.358   0.000   1.358   1.358   0.000   1.358   0.000   0.000   16.51   13.58    0.00   13.58    0.00    0.00 -99.000 -99.000 -99.000 
 1981 289    11   3.40  16.70   8.90 -99.000   0.707   0.000   0.707   0.707   0.000   0.707   0.000   0.000   17.21   14.29    0.00   14.29    0.00    0.00 -99.000 -99.000 -99.000 
 1981 290    12  12.50  20.00  12.20 -99.000   2.788   0.000   2.788   2.788   0.000   2.788   0.000   0.000   20.00   17.08    0.00   17.08    0.00    0.00 -99.000 -99.000 -99.000 
 1981 291    13  12.20  12.80   6.10 -99.000   2.363   0.000   2.363   2.303   0.000   2.303   0.000   0.000   22.36   19.38    0.00   19.38    0.00    0.00 -99.000 -99.000 -99.000 
 1981 292    14  15.70  24.40   0.00 -99.000   3.353   0.000   3.353   3.353   0.000   3.353   0.000   0.000   25.72   22.73    0.00   22.73    0.00    0.00 -99.000 -99.000 -99.000 
 1981 293    15  15.10  23.30  11.70 -99.000   3.461   0.000   3.461   1.466   0.000   1.466   0.000   0.000   29.18   24.20    0.00   24.20    0.00    0.00 -99.000 -99.000 -99.000 
 1981 294    16  11.00  16.70   6.70 -99.000   2.196   0.000   2.196   1.120   0.000   1.120   0.000   0.000   31.37   25.32    0.00   25.32    0.00    0.00 -99.000 -99.000 -99.000 
 1981 295    17  13.90  10.60   1.70 -99.000   2.391   0.000   2.391   0.942   0.000   0.942   0.000   0.000   33.76   26.26    0.00   26.26    0.00    0.00 -99.000 -99.000 -99.000 
 1981 296    18  15.10   7.20  -3.30 -99.000   2.300   0.004   2.296   0.833   0.004   0.829   0.000   0.000   36.06   27.10    0.00   27.09    0.00    0.00 -99.000 -99.000 -99.000 
 1981 297    19   4.90  11.10   1.10 -99.000   0.840   0.002   0.839   0.751   0.002   0.749   0.000   0.000   36.90   27.85    0.01   27.84    0.00    0.00 -99.000 -99.000 -99.000 
 1981 298    20   5.80  11.10   5.60 -99.000   1.042   0.004   1.038   0.647   0.004   0.643   0.000   0.000   37.95   28.49    0.01   28.48    0.00    0.00 -99.000 -99.000 -99.000 
 1981 299    21  13.00  15.60   0.00 -99.000   2.405   0.017   2.389   1.737   0.017   1.721   0.000   0.000   40.35   30.23    0.03   30.20    0.00    0.00 -99.000 -99.000 -99.000 
 1981 300    22  13.10  21.70   5.60 -99.000   2.784   0.027   2.757   0.841   0.027   0.814   0.000   0.000   43.14   31.07    0.05   31.02    0.00    0.00 -99.000 -99.000 -99.000 
 1981 301    23  12.10  21.70  10.60 -99.000   2.677   0.043   2.634   0.781   0.043   0.738   0.000   0.000   45.81   31.85    0.10   31.76    0.00    0.00 -99.000 -99.000 -99.000 
 1981 302    24  12.30  25.00  10.00 -99.000   2.812   0.068   2.744   0.748   0.068   0.680   0.000   0.000   48.63   32.60    0.16   32.44    0.00    0.00 -99.000 -99.000 -99.000 
 1981 303    25   2.90  18.30  13.90 -99.000   0.627   0.021   0.606   0.627   0.021   0.606   0.000   0.000   49.25   33.23    0.19   33.04    0.00    0.00 -99.000 -99.000 -99.000 
 1981 304    26   1.80  15.60  12.20 -99.000   0.368   0.015   0.353   0.368   0.015   0.353   0.000   0.000   49.62   33.60    0.20   33.40    0.00    0.00 -99.000 -99.000 -99.000 
 1981 305    27   2.90  15.00   9.40 -99.000   0.574   0.026   0.548   0.574   0.026   0.548   0.000   0.000   50.19   34.17    0.23   33.94    0.00    0.00 -99.000 -99.000 -99.000 
 1981 306    28   2.80  13.30   7.20 -99.000   0.556   0.027   0.529   0.556   0.027   0.529   0.000   0.000   50.75   34.73    0.25   34.47    0.00    0.00 -99.000 -99.000 -99.000 
 1981 307    29   6.20  15.60   7.20 -99.000   1.272   0.066   1.205   1.272   0.066   1.205   0.000   0.000   52.02   36.00    0.32   35.68    0.00    0.00 -99.000 -99.000 -99.000 
 1981 308    30   3.60  12.20   8.30 -99.000   0.703   0.039   0.665   0.703   0.039   0.665   0.000   0.000   52.73   36.70    0.36   36.34    0.00    0.00 -99.000 -99.000 -99.000 
 1981 309    31  12.20  15.60   5.60 -99.000   2.463   0.143   2.320   2.463   0.143   2.320   0.000   0.000   55.19   39.16    0.50   38.66    0.00    0.00 -99.000 -99.000 -99.000 
 1981 310    32  12.80  15.60  -2.20 -99.000   2.357   0.144   2.213   2.357   0.144   2.213   0.000   0.000   57.55   41.52    0.65   40.88    0.00    0.00 -99.000 -99.000 -99.000 
 1981 311    33   9.20  19.40   0.00 -99.000   1.816   0.113   1.703   1.322   0.113   1.209   0.000   0.000   59.36   42.84    0.76   42.08    0.00    0.00 -99.000 -99.000 -99.000 
 1981 312    34   1.10  16.70   5.00 -99.000   0.218   0.014   0.204   0.218   0.014   0.204   0.000   0.000   59.58   43.06    0.77   42.29    0.00    0.00 -99.000 -99.000 -99.000 
 1981 313    35  12.60   7.80  -2.80 -99.000   2.047   0.139   1.909   2.047   0.139   1.909   0.000   0.000   61.63   45.11    0.91   44.20    0.00    0.00 -99.000 -99.000 -99.000 
 1981 314    36  11.90  15.00  -3.90 -99.000   2.134   0.145   1.988   2.133   0.145   1.988   0.000   0.000   63.76   47.24    1.06   46.19    0.00    0.00 -99.000 -99.000 -99.000 
 1981 315    37  11.40  16.10  -1.10 -99.000   2.121   0.146   1.975   1.772   0.146   1.626   0.000   0.000   65.88   49.01    1.20   47.81    0.00    0.00 -99.000 -99.000 -99.000 
 1981 316    38  11.10  20.00   1.70 -99.000   2.239   0.158   2.080   2.238   0.158   2.080   0.000   0.000   68.12   51.25    1.36   49.89    0.00    0.00 -99.000 -99.000 -99.000 
 1981 317    39  10.90  19.40   1.70 -99.000   2.160   0.160   2.000   1.919   0.160   1.759   0.000   0.000   70.28   53.17    1.52   51.65    0.00    0.00 -99.000 -99.000 -99.000 
 1981 318    40   7.90  18.30   7.80 -99.000   1.622   0.126   1.496   1.356   0.126   1.231   0.000   0.000   71.90   54.53    1.65   52.88    0.00    0.00 -99.000 -99.000 -99.000 
 1981 319    41   8.50  20.00  10.00 -99.000   1.816   0.148   1.667   1.153   0.148   1.005   0.000   0.000   73.72   55.68    1.80   53.89    0.00    0.00 -99.000 -99.000 -99.000 
 1981 320    42  10.90  20.00  15.00 -99.000   2.426   0.210   2.216   1.081   0.210   0.871   0.000   0.000   76.15   56.76    2.01   54.76    0.00    0.00 -99.000 -99.000 -99.000 
 1981 321    43  10.40  23.30   2.20 -99.000   2.155   0.198   1.957   0.978   0.198   0.779   0.000   0.000   78.30   57.74    2.20   55.54    0.00    0.00 -99.000 -99.000 -99.000 
 1981 322    44   6.80  18.90   9.40 -99.000   1.415   0.136   1.279   0.848   0.136   0.712   0.000   0.000   79.72   58.59    2.34   56.25    0.00    0.00 -99.000 -99.000 -99.000 
 1981 323    45   2.30   9.40  -1.10 -99.000   0.370   0.038   0.333   0.370   0.038   0.333   0.000   0.000   80.09   58.96    2.38   56.58    0.00    0.00 -99.000 -99.000 -99.000 
 1981 324    46  10.00   3.90  -3.90 -99.000   0.943   0.095   0.847   0.733   0.095   0.637   0.000   0.000   81.03   59.69    2.47   57.22    0.00    0.00 -99.000 -99.000 -99.000 
 1981 325    47  10.10  10.60  -5.60 -99.000   1.576   0.159   1.416   0.758   0.159   0.599   0.000   0.000   82.61   60.45    2.63   57.82    0.00    0.00 -99.000 -99.000 -99.000 
 1981 326    48   7.00  17.20  -3.30 -99.000   1.252   0.126   1.125   0.693   0.126   0.567   0.000   0.000   83.86   61.14    2.76   58.38    0.00    0.00 -99.000 -99.000 -99.000 
 1981 327    49   9.10  15.00   6.10 -99.000   1.731   0.176   1.555   0.715   0.176   0.539   0.000   0.000   85.59   61.86    2.93   58.92    0.00    0.00 -99.000 -99.000 -99.000 
 1981 328    50   8.00  12.80   0.00 -99.000   1.379   0.143   1.236   0.658   0.143   0.515   0.000   0.000   86.97   62.51    3.08   59.44    0.00    0.00 -99.000 -99.000 -99.000 
 1981 329    51   8.50  19.40   5.00 -99.000   1.702   0.177   1.524   0.671   0.177   0.494   0.000   0.000   88.67   63.19    3.25   59.93    0.00    0.00 -99.000 -99.000 -99.000 
 1981 330    52   6.20  10.00   3.30 -99.000   1.056   0.112   0.944   0.588   0.112   0.476   0.000   0.000   89.72   63.77    3.37   60.41    0.00    0.00 -99.000 -99.000 -99.000 
 1981 331    53   5.70   5.00  -6.70 -99.000   0.783   0.084   0.700   0.543   0.084   0.459   0.000   0.000   90.51   64.32    3.45   60.87    0.00    0.00 -99.000 -99.000 -99.000 
 1981 332    54   5.40   6.10  -1.10 -99.000   0.815   0.087   0.728   0.531   0.087   0.444   0.000   0.000   91.32   64.85    3.54   61.31    0.00    0.00 -99.000 -99.000 -99.000 
 1981 333    55   4.60   9.40  -3.30 -99.000   0.718   0.077   0.641   0.507   0.077   0.430   0.000   0.000   92.04   65.35    3.61   61.74    0.00    0.00 -99.000 -99.000 -99.000 
 1981 334    56   0.70   7.80   3.90 -99.000   0.115   0.012   0.103   0.115   0.012   0.103   0.000   0.000   92.16   65.47    3.63   61.84    0.00    0.00 -99.000 -99.000 -99.000 
 1981 335    57   2.80   4.40   0.00 -99.000   0.322   0.034   0.287   0.322   0.034   0.287   0.000   0.000   92.48   65.79    3.66   62.13    0.00    0.00 -99.000 -99.000 -99.000 
 1981 336    58   8.00   8.90  -1.70 -99.000   1.328   0.142   1.186   1.327   0.142   1.185   0.000   0.000   93.81   67.12    3.80   63.32    0.00    0.00 -99.000 -99.000 -99.000 
 1981 337    59   9.80  10.60  -1.70 -99.000   1.661   0.177   1.483   1.659   0.177   1.482   0.000   0.000   95.47   68.78    3.98   64.80    0.00    0.00 -99.000 -99.000 -99.000 
 1981 338    60   9.90   8.90  -1.10 -99.000   1.628   0.174   1.454   1.627   0.174   1.453   0.000   0.000   97.10   70.40    4.15   66.25    0.00    0.00 -99.000 -99.000 -99.000 
 1981 339    61   3.50  10.60  -2.80 -99.000   0.578   0.062   0.517   0.578   0.062   0.516   0.000   0.000   97.67   70.98    4.22   66.77    0.00    0.00 -99.000 -99.000 -99.000 
 1981 340    62   6.90  16.10   1.70 -99.000   1.311   0.140   1.171   0.872   0.140   0.732   0.000   0.000   98.98   71.85    4.36   67.50    0.00    0.00 -99.000 -99.000 -99.000 
 1981 341    63   9.00  17.80   5.60 -99.000   1.819   0.199   1.620   1.817   0.199   1.618   0.000   0.000  100.80   73.67    4.55   69.12    0.00    0.00 -99.000 -99.000 -99.000 
 1981 342    64   7.90  10.60  -3.30 -99.000   1.287   0.145   1.142   1.286   0.145   1.140   0.000   0.000  102.09   74.96    4.70   70.26    0.00    0.00 -99.000 -99.000 -99.000 
 1981 343    65   8.60   6.70  -2.20 -99.000   1.319   0.149   1.170   1.317   0.149   1.168   0.000   0.000  103.41   76.27    4.85   71.42    0.00    0.00 -99.000 -99.000 -99.000 
 1981 344    66   2.30   2.20  -2.80 -99.000   0.158   0.018   0.140   0.158   0.018   0.140   0.000   0.000  103.57   76.43    4.87   71.56    0.00    0.00 -99.000 -99.000 -99.000 
 1981 345    67   1.80   3.90   1.10 -99.000   0.183   0.021   0.162   0.183   0.021   0.162   0.000   0.000  103.75   76.61    4.89   71.73    0.00    0.00 -99.000 -99.000 -99.000 
 1981 346    68   1.60   3.90   1.70 -99.000   0.164   0.018   0.146   0.164   0.018   0.146   0.000   0.000  103.91   76.78    4.91   71.87    0.00    0.00 -99.000 -99.000 -99.000 
 1981 347    69   1.30   4.40   0.60 -99.000   0.146   0.016   0.129   0.145   0.016   0.129   0.000   0.000  104.06   76.92    4.92   72.00    0.00    0.00 -99.000 -99.000 -99.000 
 1981 348    70   8.40   2.80  -1.70 -99.000   0.665   0.074   0.590   0.664   0.074   0.589   0.000   0.000  104.73   77.59    5.00   72.59    0.00    0.00 -99.000 -99.000 -99.000 
 1981 349    71   4.20   2.20  -2.20 -99.000   0.293   0.033   0.260   0.293   0.033   0.260   0.000   0.000  105.02   77.88    5.03   72.85    0.00    0.00 -99.000 -99.000 -99.000 
 1981 350    72   0.70  -1.10  -8.30 -99.000   0.023   0.003   0.020   0.023   0.003   0.020   0.000   0.000  105.04   77.90    5.03   72.87    0.00    0.00 -99.000 -99.000 -99.000 
 1981 351    73   8.20  -8.30 -16.70 -99.000   0.051   0.006   0.045   0.051   0.006   0.045   0.000   0.000  105.09   77.95    5.04   72.92    0.00    0.00 -99.000 -99.000 -99.000 
 1981 352    74   6.70  -9.40 -17.80 -99.000   0.032   0.002   0.030   0.032   0.002   0.030   0.000   0.000  105.12   77.99    5.04   72.95    0.00    0.00 -99.000 -99.000 -99.000 
 1981 353    75   9.30  -5.00 -17.80 -99.000   0.115   0.002   0.113   0.114   0.002   0.112   0.000   0.000  105.24   78.10    5.04   73.06    0.00    0.00 -99.000 -99.000 -99.000 
 1981 354    76   3.10   2.80 -11.10 -99.000   0.217   0.003   0.214   0.213   0.003   0.211   0.000   0.000  105.46   78.31    5.04   73.27    0.00    0.00 -99.000 -99.000 -99.000 
 1981 355    77   1.60   2.80   1.10 -99.000   0.135   0.002   0.133   0.133   0.002   0.130   0.000   0.001  105.59   78.45    5.05   73.40    0.00    0.00 -99.000 -99.000 -99.000 
 1981 356    78   1.90   2.80   0.60 -99.000   0.160   0.002   0.158   0.157   0.002   0.154   0.000   0.001  105.75   78.60    5.05   73.55    0.00    0.00 -99.000 -99.000 -99.000 
 1981 357    79   9.20   5.00  -7.20 -99.000   1.319   0.016   1.303   1.297   0.016   1.280   0.000   0.001  107.07   79.90    5.06   74.83    0.00    0.00 -99.000 -99.000 -99.000 
 1981 358    80   9.50   7.20  -7.80 -99.000   1.401   0.017   1.383   1.376   0.017   1.358   0.000   0.001  108.47   81.28    5.08   76.19    0.00    0.00 -99.000 -99.000 -99.000 
 1981 359    81   6.70   7.20  -3.90 -99.000   1.032   0.013   1.019   1.014   0.013   1.000   0.000   0.001  109.50   82.29    5.09   77.19    0.00    0.00 -99.000 -99.000 -99.000 
 1981 360    82   7.10   3.30  -6.70 -99.000   0.585   0.007   0.577   0.575   0.007   0.567   0.000   0.001  110.09   82.87    5.10   77.76    0.00    0.01 -99.000 -99.000 -99.000 
 1981 361    83   2.10   2.20  -8.30 -99.000   0.135   0.002   0.134   0.133   0.002   0.130   0.000   0.001  110.22   83.00    5.10   77.89    0.00    0.01 -99.000 -99.000 -99.000 
 1981 362    84   6.80   0.00  -8.90 -99.000   0.278   0.003   0.275   0.273   0.003   0.269   0.000   0.001  110.50   83.27    5.11   78.16    0.00    0.01 -99.000 -99.000 -99.000 
 1981 363    85   9.80   4.40 -11.70 -99.000   0.938   0.012   0.927   0.922   0.012   0.910   0.000   0.001  111.44   84.19    5.12   79.07    0.00    0.01 -99.000 -99.000 -99.000 
 1981 364    86   6.70  10.60  -7.20 -99.000   1.050   0.013   1.037   0.891   0.013   0.877   0.000   0.001  112.49   85.08    5.13   79.94    0.00    0.01 -99.000 -99.000 -99.000 
 1981 365    87   7.20   6.70  -6.70 -99.000   1.050   0.013   1.037   0.798   0.013   0.784   0.000   0.001  113.54   85.88    5.14   80.73    0.00    0.01 -99.000 -99.000 -99.000 
 1982 001    88   2.30  -2.20 -10.00 -99.000   0.058   0.001   0.058   0.057   0.001   0.056   0.000   0.001  113.60   85.94    5.15   80.78    0.00    0.01 -99.000 -99.000 -99.000 
 1982 002    89   1.00   6.10  -4.40 -99.000   0.148   0.002   0.147   0.146   0.002   0.143   0.000   0.001  113.75   86.09    5.15   80.93    0.00    0.01 -99.000 -99.000 -99.000 
 1982 003    90   1.70  -3.30  -9.40 -99.000   0.035   0.000   0.035   0.035   0.000   0.034   0.000   0.001  113.78   86.12    5.15   80.96    0.00    0.01 -99.000 -99.000 -99.000 
 1982 004    91  10.10   2.80 -15.00 -99.000   0.669   0.009   0.660   0.657   0.009   0.648   0.000   0.001  114.45   86.78    5.16   81.61    0.00    0.01 -99.000 -99.000 -99.000 
 1982 005    92   9.60   6.10  -9.40 -99.000   1.373   0.018   1.356   1.350   0.018   1.331   0.000   0.001  115.82   88.13    5.17   82.94    0.00    0.01 -99.000 -99.000 -99.000 
 1982 006    93   4.00  -6.70 -15.00 -99.000   0.037   0.000   0.037   0.036   0.000   0.035   0.000   0.001  115.86   88.16    5.17   82.98    0.00    0.01 -99.000 -99.000 -99.000 
 1982 007    94  10.10  -5.60 -17.20 -99.000   0.113   0.001   0.112   0.111   0.001   0.109   0.000   0.001  115.97   88.27    5.18   83.08    0.00    0.01 -99.000 -99.000 -99.000 
 1982 008    95   7.70   5.00 -10.60 -99.000   1.048   0.008   1.040   1.030   0.008   1.021   0.000   0.001  117.02   89.30    5.18   84.11    0.00    0.02 -99.000 -99.000 -99.000 
 1982 009    96   6.00  -1.70 -15.00 -99.000   0.157   0.001   0.156   0.155   0.001   0.153   0.000   0.001  117.18   89.46    5.18   84.26    0.00    0.02 -99.000 -99.000 -99.000 
 1982 010    97   9.90 -11.10 -26.10 -99.000   0.026   0.000   0.026   0.025   0.000   0.025   0.000   0.000  117.21   89.48    5.18   84.28    0.00    0.02 -99.000 -99.000 -99.000 
 1982 011    98   8.80  -5.60 -21.10 -99.000   0.090   0.000   0.090   0.088   0.000   0.087   0.000   0.001  117.30   89.57    5.18   84.37    0.00    0.02 -99.000 -99.000 -99.000 
 1982 012    99   4.40  -7.20 -11.10 -99.000   0.040   0.000   0.040   0.039   0.000   0.038   0.000   0.001  117.34   89.61    5.18   84.41    0.00    0.02 -99.000 -99.000 -99.000 
 1982 013   100  11.00  -7.80 -21.10 -99.000   0.070   0.000   0.070   0.068   0.000   0.068   0.000   0.001  117.41   89.68    5.18   84.48    0.00    0.02 -99.000 -99.000 -99.000 
 1982 014   101   9.70   8.30 -14.40 -99.000   1.339   0.001   1.338   1.313   0.001   1.311   0.000   0.001  118.74   90.99    5.19   85.79    0.00    0.02 -99.000 -99.000 -99.000 
 1982 015   102   5.90   5.60  -8.30 -99.000   0.843   0.001   0.842   0.826   0.001   0.825   0.000   0.001  119.59   91.82    5.19   86.61    0.00    0.02 -99.000 -99.000 -99.000 
 1982 016   103  11.00  -8.30 -20.00 -99.000   0.064   0.000   0.064   0.063   0.000   0.062   0.000   0.001  119.65   91.88    5.19   86.67    0.00    0.02 -99.000 -99.000 -99.000 
 1982 017   104   8.50  -0.60 -16.70 -99.000   0.273   0.000   0.273   0.268   0.000   0.266   0.000   0.001  119.92   92.15    5.19   86.94    0.00    0.02 -99.000 -99.000 -99.000 
 1982 018   105  10.00   8.90  -8.30 -99.000   1.517   0.001   1.516   1.308   0.001   1.306   0.000   0.001  121.44   93.46    5.19   88.25    0.00    0.02 -99.000 -99.000 -99.000 
 1982 019   106   9.00   7.20  -8.30 -99.000   1.311   0.001   1.310   1.046   0.001   1.045   0.000   0.001  122.75   94.50    5.19   89.29    0.00    0.02 -99.000 -99.000 -99.000 
 1982 020   107   2.10  -1.10  -5.60 -99.000   0.072   0.000   0.072   0.071   0.000   0.070   0.000   0.001  122.82   94.58    5.19   89.36    0.00    0.03 -99.000 -99.000 -99.000 
 1982 021   108   2.10  -2.80  -7.20 -99.000   0.050   0.000   0.050   0.049   0.000   0.048   0.000   0.001  122.87   94.62    5.19   89.41    0.00    0.03 -99.000 -99.000 -99.000 
 1982 022   109   1.70   5.00  -9.40 -99.000   0.233   0.000   0.233   0.228   0.000   0.227   0.000   0.001  123.11   94.85    5.19   89.64    0.00    0.03 -99.000 -99.000 -99.000 
 1982 023   110  11.30  -6.70 -15.00 -99.000   0.105   0.000   0.105   0.103   0.000   0.102   0.000   0.001  123.21   94.96    5.19   89.74    0.00    0.03 -99.000 -99.000 -99.000 
 1982 024   111   7.90  -0.60 -14.40 -99.000   0.265   0.000   0.264   0.259   0.000   0.258   0.000   0.001  123.48   95.22    5.19   90.00    0.00    0.03 -99.000 -99.000 -99.000 
 1982 025   112  11.60   5.60  -7.80 -99.000   1.659   0.001   1.658   1.096   0.001   1.094   0.000   0.001  125.14   96.31    5.19   91.09    0.00    0.03 -99.000 -99.000 -99.000 
 1982 026   113  10.40  11.70  -8.90 -99.000   1.668   0.001   1.667   1.636   0.001   1.634   0.000   0.001  126.80   97.95    5.19   92.72    0.00    0.03 -99.000 -99.000 -99.000 
 1982 027   114  10.10  11.70   4.40 -99.000   1.878   0.001   1.877   1.843   0.001   1.840   0.000   0.001  128.68   99.79    5.19   94.56    0.00    0.03 -99.000 -99.000 -99.000 
 1982 028   115   9.70   6.10  -6.10 -99.000   1.428   0.002   1.427   1.401   0.002   1.398   0.000   0.001  130.11  101.19    5.19   95.96    0.00    0.03 -99.000 -99.000 -99.000 
 1982 029   116   1.00   9.40   1.10 -99.000   0.170   0.000   0.170   0.152   0.000   0.151   0.000   0.001  130.28  101.34    5.19   96.11    0.00    0.03 -99.000 -99.000 -99.000 
 1982 030   117   5.10   3.30  -3.30 -99.000   0.443   0.001   0.443   0.435   0.001   0.433   0.000   0.001  130.72  101.78    5.19   96.55    0.00    0.04 -99.000 -99.000 -99.000 
 1982 031   118   5.10  -2.80 -11.70 -99.000   0.115   0.000   0.115   0.113   0.000   0.112   0.000   0.001  130.84  101.89    5.19   96.66    0.00    0.04 -99.000 -99.000 -99.000 
 1982 032   119   4.90   3.30  -7.20 -99.000   0.411   0.001   0.410   0.403   0.001   0.401   0.000   0.001  131.25  102.29    5.20   97.06    0.00    0.04 -99.000 -99.000 -99.000 
 1982 033   120   3.30   0.00  -7.80 -99.000   0.140   0.000   0.140   0.137   0.000   0.136   0.000   0.001  131.39  102.43    5.20   97.20    0.00    0.04 -99.000 -99.000 -99.000 
 1982 034   121  11.90  -7.80 -18.30 -99.000   0.081   0.000   0.081   0.080   0.000   0.079   0.000   0.001  131.47  102.51    5.20   97.28    0.00    0.04 -99.000 -99.000 -99.000 
 1982 035   122   4.90 -13.90 -20.00 -99.000   0.008   0.000   0.008   0.008   0.000   0.008   0.000   0.000  131.48  102.52    5.20   97.28    0.00    0.04 -99.000 -99.000 -99.000 
 1982 036   123  13.70 -12.80 -18.30 -99.000   0.031   0.000   0.031   0.031   0.000   0.030   0.000   0.001  131.51  102.55    5.20   97.31    0.00    0.04 -99.000 -99.000 -99.000 
 1982 037   124  14.70  -4.40 -23.30 -99.000   0.186   0.000   0.186   0.183   0.000   0.182   0.000   0.001  131.70  102.73    5.20   97.49    0.00    0.04 -99.000 -99.000 -99.000 
 1982 038   125  14.20   2.20 -15.00 -99.000   0.841   0.001   0.841   0.825   0.001   0.823   0.000   0.001  132.54  103.56    5.20   98.32    0.00    0.04 -99.000 -99.000 -99.000 
 1982 039   126   5.10  -6.10 -10.00 -99.000   0.060   0.000   0.060   0.058   0.000   0.057   0.000   0.001  132.60  103.62    5.20   98.38    0.00    0.04 -99.000 -99.000 -99.000 
 1982 040   127  14.50  -9.40 -19.40 -99.000   0.068   0.000   0.068   0.067   0.000   0.066   0.000   0.001  132.67  103.68    5.20   98.44    0.00    0.04 -99.000 -99.000 -99.000 
 1982 041   128  11.60  -4.40 -18.90 -99.000   0.162   0.000   0.162   0.159   0.000   0.158   0.000   0.001  132.83  103.84    5.20   98.60    0.00    0.05 -99.000 -99.000 -99.000 
 1982 042   129  10.50   0.00 -17.80 -99.000   0.377   0.000   0.377   0.370   0.000   0.369   0.000   0.001  133.20  104.21    5.20   98.97    0.00    0.05 -99.000 -99.000 -99.000 
 1982 043   130   7.70   1.70  -6.10 -99.000   0.472   0.000   0.472   0.463   0.000   0.462   0.000   0.001  133.68  104.67    5.20   99.43    0.00    0.05 -99.000 -99.000 -99.000 
 1982 044   131  15.70   3.90 -12.20 -99.000   1.384   0.001   1.383   1.357   0.001   1.355   0.000   0.001  135.06  106.03    5.20  100.79    0.00    0.05 -99.000 -99.000 -99.000 
 1982 045   132  12.30   6.70  -1.10 -99.000   1.976   0.001   1.975   1.938   0.001   1.936   0.000   0.001  137.04  107.97    5.20  102.72    0.00    0.05 -99.000 -99.000 -99.000 
 1982 046   133   4.20   7.20   2.20 -99.000   0.706   0.001   0.705   0.693   0.001   0.691   0.000   0.001  137.74  108.66    5.20  103.41    0.00    0.05 -99.000 -99.000 -99.000 
 1982 047   134   2.30   5.00   2.20 -99.000   0.371   0.000   0.370   0.364   0.000   0.362   0.000   0.001  138.11  109.03    5.20  103.77    0.00    0.05 -99.000 -99.000 -99.000 
 1982 048   135   1.80   3.90   1.10 -99.000   0.189   0.000   0.188   0.185   0.000   0.184   0.000   0.001  138.30  109.21    5.20  103.96    0.00    0.05 -99.000 -99.000 -99.000 
 1982 049   136  10.50  12.80   1.10 -99.000   1.915   0.002   1.913   1.878   0.002   1.875   0.000   0.001  140.22  111.09    5.20  105.83    0.00    0.05 -99.000 -99.000 -99.000 
 1982 050   137  14.70  18.90  -1.10 -99.000   2.886   0.004   2.882   2.831   0.004   2.826   0.000   0.001  143.10  113.92    5.21  108.66    0.00    0.05 -99.000 -99.000 -99.000 
 1982 051   138  15.60  18.90   3.30 -99.000   3.146   0.006   3.141   1.974   0.006   1.967   0.000   0.001  146.25  115.89    5.21  110.63    0.00    0.06 -99.000 -99.000 -99.000 
 1982 052   139  15.20  21.10  -1.10 -99.000   3.010   0.007   3.004   2.217   0.007   2.209   0.000   0.001  149.26  118.11    5.22  112.84    0.00    0.06 -99.000 -99.000 -99.000 
 1982 053   140  15.60  25.60  -1.10 -99.000   3.263   0.009   3.253   1.357   0.009   1.346   0.000   0.001  152.52  119.47    5.23  114.18    0.00    0.06 -99.000 -99.000 -99.000 
 1982 054   141   1.80  17.80   1.10 -99.000   0.343   0.001   0.341   0.336   0.001   0.334   0.000   0.001  152.87  119.80    5.23  114.52    0.00    0.06 -99.000 -99.000 -99.000 
 1982 055   142  16.10   6.70   0.00 -99.000   2.529   0.010   2.520   1.021   0.010   1.010   0.000   0.001  155.39  120.82    5.24  115.53    0.00    0.06 -99.000 -99.000 -99.000 
 1982 056   143  11.60   2.20  -5.00 -99.000   0.771   0.004   0.767   0.756   0.004   0.752   0.000   0.001  156.17  121.58    5.24  116.28    0.00    0.06 -99.000 -99.000 -99.000 
 1982 057   144  16.90   3.90  -7.80 -99.000   1.518   0.007   1.511   0.802   0.007   0.794   0.000   0.001  157.68  122.38    5.25  117.07    0.00    0.06 -99.000 -99.000 -99.000 
 1982 058   145  15.40  11.10  -7.80 -99.000   2.373   0.011   2.362   0.734   0.011   0.723   0.000   0.001  160.06  123.12    5.26  117.79    0.00    0.06 -99.000 -99.000 -99.000 
 1982 059   146  12.30  13.30  -3.90 -99.000   2.061   0.010   2.051   0.679   0.010   0.668   0.000   0.001  162.12  123.80    5.27  118.46    0.00    0.06 -99.000 -99.000 -99.000 
 1982 060   147  16.20  20.60  -3.90 -99.000   3.047   0.018   3.029   0.643   0.018   0.624   0.000   0.001  165.16  124.44    5.29  119.09    0.00    0.06 -99.000 -99.000 -99.000 
 1982 061   148   4.50  15.60   1.70 -99.000   0.829   0.006   0.823   0.595   0.006   0.588   0.000   0.001  165.99  125.03    5.30  119.67    0.00    0.06 -99.000 -99.000 -99.000 
 1982 062   149   0.80   1.70  -2.20 -99.000   0.050   0.000   0.049   0.049   0.000   0.048   0.000   0.001  166.04  125.08    5.30  119.72    0.00    0.07 -99.000 -99.000 -99.000 
 1982 063   150   5.70  -1.70  -5.60 -99.000   0.170   0.001   0.169   0.167   0.001   0.165   0.000   0.001  166.21  125.25    5.30  119.89    0.00    0.07 -99.000 -99.000 -99.000 
 1982 064   151   8.70  -2.20  -6.10 -99.000   0.233   0.002   0.231   0.229   0.002   0.226   0.000   0.001  166.45  125.48    5.30  120.11    0.00    0.07 -99.000 -99.000 -99.000 
 1982 065   152  18.90   6.10 -12.20 -99.000   2.491   0.020   2.470   1.043   0.020   1.022   0.000   0.001  168.94  126.52    5.32  121.13    0.00    0.07 -99.000 -99.000 -99.000 
 1982 066   153  12.70   3.90 -10.00 -99.000   1.105   0.009   1.096   0.523   0.009   0.513   0.000   0.001  170.04  127.04    5.33  121.65    0.00    0.07 -99.000 -99.000 -99.000 
 1982 067   154  17.90   8.90  -3.90 -99.000   2.778   0.023   2.756   0.516   0.023   0.492   0.000   0.001  172.82  127.56    5.35  122.14    0.00    0.07 -99.000 -99.000 -99.000 
 1982 068   155  13.50  10.60  -7.80 -99.000   2.059   0.019   2.041   0.493   0.019   0.474   0.000   0.001  174.88  128.05    5.37  122.61    0.00    0.07 -99.000 -99.000 -99.000 
 1982 069   156  16.20  26.10  -3.90 -99.000   3.301   0.031   3.270   0.489   0.031   0.457   0.000   0.001  178.18  128.54    5.40  123.07    0.00    0.07 -99.000 -99.000 -99.000 
 1982 070   157  13.60  19.40   0.60 -99.000   2.626   0.031   2.595   0.475   0.031   0.442   0.000   0.001  180.81  129.02    5.43  123.51    0.00    0.07 -99.000 -99.000 -99.000 
 1982 071   158   7.60  22.80   2.80 -99.000   1.571   0.023   1.548   0.453   0.023   0.429   0.000   0.001  182.38  129.47    5.45  123.94    0.00    0.07 -99.000 -99.000 -99.000 
 1982 072   159  17.00  17.80  -1.70 -99.000   3.127   0.052   3.075   0.470   0.052   0.417   0.000   0.001  185.51  129.94    5.51  124.36    0.00    0.07 -99.000 -99.000 -99.000 
 1982 073   160   1.40  10.60   5.00 -99.000   0.246   0.005   0.241   0.242   0.005   0.236   0.000   0.001  185.75  130.18    5.51  124.59    0.00    0.08 -99.000 -99.000 -99.000 
 1982 074   161   5.60  15.00   5.00 -99.000   1.059   0.023   1.036   1.039   0.023   1.015   0.000   0.001  186.81  131.22    5.54  125.61    0.00    0.08 -99.000 -99.000 -99.000 
 1982 075   162  19.40  18.90   7.20 -99.000   4.136   0.099   4.037   4.058   0.099   3.958   0.000   0.001  190.95  135.28    5.63  129.57    0.00    0.08 -99.000 -99.000 -99.000 
 1982 076   163  17.70  23.90   3.90 -99.000   3.841   0.120   3.720   2.727   0.120   2.605   0.000   0.001  194.79  138.00    5.75  132.17    0.00    0.08 -99.000 -99.000 -99.000 
 1982 077   164   2.10  11.70   7.80 -99.000   0.392   0.016   0.376   0.385   0.016   0.368   0.000   0.001  195.18  138.39    5.77  132.54    0.00    0.08 -99.000 -99.000 -99.000 
 1982 078   165  16.60  23.90   8.30 -99.000   3.709   0.154   3.554   3.640   0.154   3.485   0.000   0.001  198.89  142.03    5.92  136.02    0.00    0.08 -99.000 -99.000 -99.000 
 1982 079   166  21.20  14.40   2.20 -99.000   3.963   0.207   3.756   3.024   0.207   2.815   0.000   0.001  202.85  145.05    6.13  138.84    0.00    0.08 -99.000 -99.000 -99.000 
 1982 080   167  20.00   8.90  -3.90 -99.000   3.132   0.207   2.925   2.641   0.207   2.433   0.000   0.001  205.98  147.69    6.34  141.27    0.00    0.08 -99.000 -99.000 -99.000 
 1982 081   168  21.90  12.80  -5.00 -99.000   3.595   0.242   3.353   1.627   0.242   1.384   0.000   0.001  209.58  149.32    6.58  142.66    0.00    0.08 -99.000 -99.000 -99.000 
 1982 082   169  11.40  13.90   1.70 -99.000   2.044   0.144   1.900   1.227   0.144   1.082   0.000   0.001  211.62  150.55    6.72  143.74    0.00    0.08 -99.000 -99.000 -99.000 
 1982 083   170  17.10  13.90  -0.60 -99.000   2.982   0.250   2.731   1.171   0.250   0.920   0.000   0.001  214.60  151.72    6.97  144.66    0.00    0.09 -99.000 -99.000 -99.000 
 1982 084   171  21.50   8.30  -0.60 -99.000   3.401   0.319   3.082   2.536   0.319   2.216   0.000   0.001  218.01  154.26    7.29  146.88    0.00    0.09 -99.000 -99.000 -99.000 
 1982 085   172  21.60  12.20  -6.10 -99.000   3.483   0.340   3.143   1.437   0.340   1.096   0.000   0.001  221.49  155.69    7.63  147.97    0.00    0.09 -99.000 -99.000 -99.000 
[...]
 1982 066   153  12.70   3.90 -10.00 -99.000   1.105   0.009   1.096   0.523   0.009   0.513   0.000   0.001  170.03  127.07    5.37  121.63    0.00    0.07 -99.000 -99.000 -99.000 
 1982 067   154  17.90   8.90  -3.90 -99.000   2.778   0.023   2.755   0.516   0.023   0.492   0.000   0.001  172.81  127.59    5.39  122.13    0.00    0.07 -99.000 -99.000 -99.000 
 1982 068   155  13.50  10.60  -7.80 -99.000   2.059   0.019   2.040   0.493   0.019   0.474   0.000   0.001  174.87  128.08    5.41  122.60    0.00    0.07 -99.000 -99.000 -99.000 
 1982 069   156  16.20  26.10  -3.90 -99.000   3.301   0.031   3.270   0.489   0.031   0.457   0.000   0.001  178.17  128.57    5.44  123.06    0.00    0.07 -99.000 -99.000 -99.000 
 1982 070   157  13.60  19.40   0.60 -99.000   2.626   0.031   2.595   0.475   0.031   0.442   0.000   0.001  180.80  129.04    5.47  123.50    0.00    0.07 -99.000 -99.000 -99.000 
 1982 071   158   7.60  22.80   2.80 -99.000   1.571   0.023   1.548   0.453   0.023   0.429   0.000   0.001  182.37  129.50    5.49  123.93    0.00    0.07 -99.000 -99.000 -99.000 
 1982 072   159  17.00  17.80  -1.70 -99.000   3.127   0.052   3.074   0.470   0.052   0.417   0.000   0.001  185.49  129.97    5.55  124.35    0.00    0.08 -99.000 -99.000 -99.000 
 1982 073   160   1.40  10.60   5.00 -99.000   0.246   0.005   0.241   0.242   0.005   0.236   0.000   0.001  185.74  130.21    5.55  124.58    0.00    0.08 -99.000 -99.000 -99.000 
 1982 074   161   5.60  15.00   5.00 -99.000   1.059   0.023   1.036   1.039   0.023   1.015   0.000   0.001  186.80  131.25    5.58  125.60    0.00    0.08 -99.000 -99.000 -99.000 
 1982 075   162  19.40  18.90   7.20 -99.000   4.136   0.099   4.037   4.057   0.099   3.957   0.000   0.001  190.93  135.31    5.67  129.55    0.00    0.08 -99.000 -99.000 -99.000 
 1982 076   163  17.70  23.90   3.90 -99.000   3.840   0.121   3.720   2.727   0.121   2.605   0.000   0.001  194.77  138.03    5.79  132.16    0.00    0.08 -99.000 -99.000 -99.000 
 1982 077   164   2.10  11.70   7.80 -99.000   0.392   0.016   0.376   0.385   0.016   0.368   0.000   0.001  195.17  138.42    5.81  132.53    0.00    0.08 -99.000 -99.000 -99.000 
 1982 078   165  16.60  23.90   8.30 -99.000   3.708   0.154   3.554   3.639   0.154   3.484   0.000   0.001  198.88  142.06    5.97  136.01    0.00    0.08 -99.000 -99.000 -99.000 
 1982 079   166  21.20  14.40   2.20 -99.000   3.963   0.208   3.755   3.024   0.208   2.815   0.000   0.001  202.84  145.08    6.17  138.82    0.00    0.08 -99.000 -99.000 -99.000 
 1982 080   167  20.00   8.90  -3.90 -99.000   3.132   0.207   2.925   2.642   0.207   2.434   0.000   0.001  205.97  147.72    6.38  141.26    0.00    0.08 -99.000 -99.000 -99.000 
 1982 081   168  21.90  12.80  -5.00 -99.000   3.594   0.242   3.352   1.627   0.242   1.384   0.000   0.001  209.56  149.35    6.62  142.64    0.00    0.08 -99.000 -99.000 -99.000 
 1982 082   169  11.40  13.90   1.70 -99.000   2.044   0.144   1.900   1.227   0.144   1.082   0.000   0.001  211.61  150.58    6.77  143.73    0.00    0.09 -99.000 -99.000 -99.000 
 1982 083   170  17.10  13.90  -0.60 -99.000   2.982   0.251   2.731   1.171   0.251   0.920   0.000   0.001  214.59  151.75    7.02  144.65    0.00    0.09 -99.000 -99.000 -99.000 
 1982 084   171  21.50   8.30  -0.60 -99.000   3.401   0.319   3.082   2.530   0.319   2.210   0.000   0.001  217.99  154.28    7.34  146.86    0.00    0.09 -99.000 -99.000 -99.000 
 1982 085   172  21.60  12.20  -6.10 -99.000   3.483   0.340   3.142   1.438   0.340   1.097   0.000   0.001  221.47  155.72    7.68  147.95    0.00    0.09 -99.000 -99.000 -99.000 
 1982 086   173  17.60  11.10   0.00 -99.000   2.973   0.298   2.675   1.227   0.298   0.929   0.000   0.001  224.45  156.94    7.97  148.88    0.00    0.09 -99.000 -99.000 -99.000 
 1982 087   174  12.60  12.20   1.70 -99.000   2.200   0.238   1.962   1.059   0.238   0.820   0.000   0.001  226.65  158.00    8.21  149.70    0.00    0.09 -99.000 -99.000 -99.000 
 1982 088   175   8.20  15.60   5.00 -99.000   1.556   0.187   1.368   0.931   0.187   0.742   0.000   0.001  228.20  158.93    8.40  150.44    0.00    0.09 -99.000 -99.000 -99.000 
 1982 089   176  19.30  20.00  10.00 -99.000   4.065   0.583   3.481   1.780   0.583   1.196   0.000   0.001  232.27  160.71    8.98  151.64    0.00    0.09 -99.000 -99.000 -99.000 
 1982 090   177  23.20  20.00   1.70 -99.000   4.524   0.813   3.710   1.520   0.813   0.706   0.000   0.001  236.79  162.23    9.79  152.34    0.00    0.09 -99.000 -99.000 -99.000 
 1982 091   178  21.70  26.70   1.10 -99.000   4.591   0.941   3.649   1.597   0.941   0.655   0.000   0.001  241.38  163.83   10.74  153.00    0.00    0.09 -99.000 -99.000 -99.000 
 1982 092   179  17.20  27.20   6.70 -99.000   3.822   0.903   2.918   1.517   0.903   0.613   0.000   0.001  245.20  165.35   11.64  153.61    0.00    0.10 -99.000 -99.000 -99.000 
 1982 093   180  23.20  15.00   0.00 -99.000   4.058   1.107   2.950   1.687   1.107   0.579   0.000   0.001  249.26  167.03   12.75  154.19    0.00    0.10 -99.000 -99.000 -99.000 
 1982 094   181  17.80  11.10  -0.60 -99.000   2.894   0.826   2.067   1.377   0.826   0.549   0.000   0.001  252.16  168.41   13.57  154.74    0.00    0.10 -99.000 -99.000 -99.000 
 1982 095   182   8.90   7.80  -0.60 -99.000   1.364   0.397   0.966   1.344   0.397   0.946   0.000   0.001  253.52  169.75   13.97  155.69    0.00    0.10 -99.000 -99.000 -99.000 
 1982 096   183  16.50   5.60  -7.20 -99.000   2.287   0.673   1.612   2.254   0.673   1.580   0.000   0.001  255.81  172.01   14.64  157.27    0.00    0.10 -99.000 -99.000 -99.000 
 1982 097   184   4.70   6.10   0.00 -99.000   0.722   0.213   0.509   0.712   0.213   0.498   0.000   0.001  256.53  172.72   14.86  157.76    0.00    0.10 -99.000 -99.000 -99.000 
 1982 098   185  11.20   9.40  -0.60 -99.000   1.810   0.537   1.272   1.784   0.537   1.246   0.000   0.001  258.34  174.50   15.39  159.01    0.00    0.10 -99.000 -99.000 -99.000 
 1982 099   186  24.50  13.90  -5.60 -99.000   4.034   1.216   2.817   3.862   1.216   2.646   0.000   0.001  262.37  178.37   16.61  161.66    0.00    0.10 -99.000 -99.000 -99.000 
 1982 100   187  23.80  15.60   1.70 -99.000   4.310   1.317   2.992   4.250   1.317   2.933   0.000   0.001  266.68  182.62   17.92  164.59    0.00    0.10 -99.000 -99.000 -99.000 
 1982 101   188  22.60  22.80   4.40 -99.000   4.601   1.485   3.114   3.060   1.485   1.574   0.000   0.001  271.29  185.68   19.41  166.16    0.00    0.10 -99.000 -99.000 -99.000 
 1982 102   189  24.00  29.40  11.10 -99.000   5.577   1.970   3.605   3.135   1.970   1.164   0.000   0.001  276.86  188.81   21.38  167.33    0.00    0.11 -99.000 -99.000 -99.000 
 1982 103   190  23.90  23.90   8.30 -99.000   5.039   1.992   3.046   2.959   1.990   0.968   0.000   0.001  281.90  191.77   23.37  168.29    0.00    0.11 -99.000 -99.000 -99.000 
 1982 104   191  23.80  30.60  11.70 -99.000   5.567   2.397   3.169   3.199   2.397   0.802   0.000   0.001  287.47  194.97   25.77  169.10    0.00    0.11 -99.000 -99.000 -99.000 
 1982 105   192  17.00  30.60  17.80 -99.000   4.141   1.949   2.190   2.356   1.949   0.406   0.000   0.001  291.61  197.33   27.72  169.50    0.00    0.11 -99.000 -99.000 -99.000 
 1982 106   193   8.00  26.70  10.00 -99.000   1.747   0.878   0.869   1.202   0.878   0.324   0.000   0.001  293.36  198.53   28.59  169.82    0.00    0.11 -99.000 -99.000 -99.000 
 1982 107   194  25.90  17.20   2.80 -99.000   4.652   2.485   2.164   2.755   2.485   0.269   0.000   0.001  298.01  201.28   31.08  170.09    0.00    0.11 -99.000 -99.000 -99.000 
 1982 108   195  24.30  23.30   1.10 -99.000   4.677   2.583   2.091   2.829   2.583   0.245   0.000   0.001  302.69  204.11   33.66  170.34    0.00    0.11 -99.000 -99.000 -99.000 
 1982 109   196  23.60  20.00  10.60 -99.000   4.723   2.708   2.012   2.905   2.708   0.196   0.000   0.001  307.41  207.02   36.37  170.54    0.00    0.11 -99.000 -99.000 -99.000 
 1982 110   197  24.50  13.30   0.00 -99.000   4.025   2.409   1.614   3.990   2.409   1.580   0.000   0.001  311.43  211.01   38.78  172.12    0.00    0.11 -99.000 -99.000 -99.000 
 1982 111   198  22.50  16.10  -2.20 -99.000   3.825   2.313   1.508   3.791   2.313   1.476   0.000   0.001  315.26  214.80   41.09  173.59    0.00    0.11 -99.000 -99.000 -99.000 
 1982 112   199  26.40  17.20   0.00 -99.000   4.648   2.844   1.801   4.608   2.844   1.762   0.000   0.001  319.91  219.41   43.94  175.35    0.00    0.12 -99.000 -99.000 -99.000 
 1982 113   200  22.70  21.70   1.70 -99.000   4.319   2.689   1.627   3.718   2.689   1.028   0.000   0.001  324.23  223.12   46.63  176.38    0.00    0.12 -99.000 -99.000 -99.000 
 1982 114   201  19.80  22.20  10.60 -99.000   4.092   2.616   1.474   4.059   2.616   1.442   0.000   0.001  328.32  227.18   49.24  177.82    0.00    0.12 -99.000 -99.000 -99.000 
 1982 115   202  12.20  17.20   8.90 -99.000   2.310   1.527   0.781   2.292   1.527   0.764   0.000   0.001  330.63  229.47   50.77  178.59    0.00    0.12 -99.000 -99.000 -99.000 
 1982 116   203  25.70  21.10   7.20 -99.000   5.046   3.419   1.623   5.007   3.419   1.586   0.000   0.001  335.67  234.48   54.19  180.17    0.00    0.12 -99.000 -99.000 -99.000 
 1982 117   204   7.60  15.60   5.60 -99.000   1.354   0.940   0.413   1.344   0.940   0.402   0.000   0.001  337.03  235.83   55.13  180.58    0.00    0.12 -99.000 -99.000 -99.000 
 1982 118   205   1.50  10.60   6.10 -99.000   0.252   0.178   0.074   0.250   0.178   0.071   0.000   0.001  337.28  236.08   55.31  180.65    0.00    0.12 -99.000 -99.000 -99.000 
 1982 119   206   6.80  13.30   6.70 -99.000   1.197   0.854   0.342   1.188   0.854   0.332   0.000   0.001  338.48  237.26   56.16  180.98    0.00    0.12 -99.000 -99.000 -99.000 
 1982 120   207  10.50  17.20  10.60 -99.000   2.025   1.467   0.556   2.011   1.467   0.542   0.000   0.002  340.50  239.27   57.63  181.52    0.00    0.13 -99.000 -99.000 -99.000 
 1982 121   208  13.70  20.60  11.70 -99.000   2.783   2.056   0.725   2.764   2.056   0.706   0.000   0.002  343.29  242.04   59.68  182.23    0.00    0.13 -99.000 -99.000 -99.000 
 1982 122   209  17.40  23.30  12.80 -99.000   3.680   2.776   0.901   3.656   2.776   0.878   0.000   0.002  346.96  245.69   62.46  183.10    0.00    0.13 -99.000 -99.000 -99.000 
 1982 123   210  19.70  28.30  15.60 -99.000   4.507   3.475   1.030   4.479   3.475   1.003   0.000   0.002  351.47  250.17   65.93  184.11    0.00    0.13 -99.000 -99.000 -99.000 
 1982 124   211  22.90  30.60  18.30 -99.000   5.467   4.302   1.162   5.435   4.302   1.132   0.000   0.002  356.94  255.61   70.24  185.24    0.00    0.13 -99.000 -99.000 -99.000 
 1982 125   212   5.30  26.10  10.00 -99.000   1.123   0.898   0.224   1.116   0.898   0.217   0.000   0.002  358.06  256.72   71.13  185.46    0.00    0.13 -99.000 -99.000 -99.000 
 1982 126   213  14.20  15.00   6.70 -99.000   2.510   2.041   0.467   2.496   2.041   0.453   0.000   0.002  360.57  259.22   73.18  185.91    0.00    0.14 -99.000 -99.000 -99.000 
 1982 127   214  26.50  23.30   5.60 -99.000   5.229   4.293   0.932   5.200   4.293   0.905   0.000   0.002  365.80  264.42   77.47  186.81    0.00    0.14 -99.000 -99.000 -99.000 
 1982 128   215  27.10  27.80  13.30 -99.000   6.017   4.999   1.014   5.985   4.999   0.984   0.000   0.002  371.82  270.41   82.47  187.80    0.00    0.14 -99.000 -99.000 -99.000 
 1982 129   216  24.40  28.30  16.70 -99.000   5.577   4.703   0.870   5.549   4.703   0.844   0.000   0.002  377.39  275.95   87.17  188.64    0.00    0.14 -99.000 -99.000 -99.000 
 1982 130   217  17.90  27.20  17.80 -99.000   4.065   3.472   0.590   4.045   3.472   0.571   0.000   0.002  381.46  280.00   90.64  189.21    0.00    0.14 -99.000 -99.000 -99.000 
 1982 131   218  22.20  28.90  15.00 -99.000   5.030   4.281   0.747   5.006   4.281   0.723   0.000   0.002  386.49  285.01   94.92  189.94    0.00    0.15 -99.000 -99.000 -99.000 
 1982 132   219  10.20  22.80  15.00 -99.000   2.151   1.823   0.326   2.140   1.823   0.315   0.000   0.002  388.64  287.15   96.75  190.25    0.00    0.15 -99.000 -99.000 -99.000 
 1982 133   220  10.80  23.30  16.70 -99.000   2.332   1.970   0.361   2.320   1.970   0.348   0.000   0.002  390.97  289.47   98.72  190.60    0.00    0.15 -99.000 -99.000 -99.000 
 1982 134   221  11.60  22.20  13.30 -99.000   2.402   2.021   0.379   2.389   2.021   0.366   0.000   0.002  393.37  291.85  100.74  190.97    0.00    0.15 -99.000 -99.000 -99.000 
 1982 135   222  26.60  24.40  11.10 -99.000   5.560   4.662   0.894   5.531   4.662   0.866   0.000   0.002  398.93  297.39  105.40  191.83    0.00    0.15 -99.000 -99.000 -99.000 
 1982 136   223  11.40  23.30  15.60 -99.000   2.441   2.039   0.399   2.427   2.039   0.386   0.000   0.002  401.37  299.81  107.44  192.22    0.00    0.16 -99.000 -99.000 -99.000 
 1982 137   224  16.50  23.90  15.00 -99.000   3.544   2.950   0.592   3.525   2.950   0.572   0.000   0.002  404.92  303.34  110.39  192.79    0.00    0.16 -99.000 -99.000 -99.000 
 1982 138   225  25.10  27.80  12.80 -99.000   5.553   4.604   0.946   5.523   4.604   0.916   0.000   0.002  410.47  308.86  114.99  193.71    0.00    0.16 -99.000 -99.000 -99.000 
 1982 139   226  23.50  30.00  17.20 -99.000   5.513   4.552   0.958   5.483   4.552   0.929   0.000   0.002  415.99  314.34  119.54  194.64    0.00    0.16 -99.000 -99.000 -99.000 
 1982 140   227  14.10  26.10  16.10 -99.000   3.135   2.575   0.558   3.117   2.575   0.540   0.000   0.002  419.12  317.46  122.12  195.18    0.00    0.17 -99.000 -99.000 -99.000 
 1982 141   228  20.90  23.30  12.80 -99.000   4.373   3.577   0.793   4.347   3.577   0.768   0.000   0.002  423.49  321.81  125.70  195.94    0.00    0.17 -99.000 -99.000 -99.000 
 1982 142   229  16.90  20.60  11.70 -99.000   3.395   2.767   0.625   3.375   2.767   0.605   0.000   0.002  426.89  325.18  128.46  196.55    0.00    0.17 -99.000 -99.000 -99.000 
 1982 143   230  23.10  24.40  11.70 -99.000   4.868   3.956   0.909   4.839   3.956   0.881   0.000   0.002  431.76  330.02  132.42  197.43    0.00    0.17 -99.000 -99.000 -99.000 
 1982 144   231   9.20  21.70  15.60 -99.000   1.935   1.566   0.367   1.923   1.566   0.354   0.000   0.002  433.69  331.94  133.99  197.78    0.00    0.18 -99.000 -99.000 -99.000 
 1982 145   232  13.70  23.30  16.70 -99.000   2.965   2.392   0.571   2.947   2.392   0.553   0.000   0.002  436.66  334.89  136.38  198.34    0.00    0.18 -99.000 -99.000 -99.000 
 1982 146   233  25.30  21.10  11.70 -99.000   5.127   4.117   1.005   5.094   4.117   0.974   0.000   0.002  441.78  339.98  140.49  199.31    0.00    0.18 -99.000 -99.000 -99.000 
 1982 147   234  28.10  26.70  10.00 -99.000   6.020   4.818   1.197   5.981   4.818   1.161   0.000   0.002  447.80  345.97  145.31  200.47    0.00    0.18 -99.000 -99.000 -99.000 
 1982 148   235  15.50  28.90  17.80 -99.000   3.622   2.888   0.732   3.599   2.888   0.709   0.000   0.002  451.42  349.57  148.20  201.18    0.00    0.18 -99.000 -99.000 -99.000 
 1982 149   236  22.90  26.70  16.10 -99.000   5.149   4.084   1.062   5.115   4.084   1.029   0.000   0.002  456.57  354.68  152.28  202.21    0.00    0.19 -99.000 -99.000 -99.000 
 1982 150   237  17.60  26.10  15.00 -99.000   3.904   3.081   0.820   3.878   3.081   0.794   0.000   0.002  460.48  358.56  155.37  203.00    0.00    0.19 -99.000 -99.000 -99.000 
 1982 151   238  14.30  22.20  13.30 -99.000   2.981   2.349   0.630   2.961   2.349   0.610   0.000   0.002  463.46  361.52  157.71  203.61    0.00    0.19 -99.000 -99.000 -99.000 
 1982 152   239  28.40  20.60   5.00 -99.000   5.396   4.245   1.147   5.359   4.245   1.112   0.000   0.002  468.85  366.88  161.96  204.73    0.00    0.19 -99.000 -99.000 -99.000 
 1982 153   240  10.80  18.30  12.20 -99.000   2.119   1.665   0.452   2.104   1.665   0.437   0.000   0.002  470.97  368.98  163.62  205.16    0.00    0.20 -99.000 -99.000 -99.000 
 1982 154   241   7.50  17.80  12.20 -99.000   1.464   1.142   0.321   1.454   1.142   0.310   0.000   0.002  472.44  370.44  164.77  205.47    0.00    0.20 -99.000 -99.000 -99.000 
 1982 155   242  14.30  21.10  12.80 -99.000   2.935   2.267   0.666   2.914   2.267   0.644   0.000   0.002  475.37  373.35  167.03  206.12    0.00    0.20 -99.000 -99.000 -99.000 
 1982 156   243  21.30  23.30  12.20 -99.000   4.478   3.425   1.050   4.445   3.425   1.018   0.000   0.002  479.85  377.79  170.46  207.13    0.00    0.20 -99.000 -99.000 -99.000 
 1982 157   244  18.70  31.10  20.00 -99.000   4.568   3.455   1.111   4.534   3.455   1.077   0.000   0.002  484.42  382.33  173.91  208.21    0.00    0.20 -99.000 -99.000 -99.000 
 1982 158   245  25.50  28.30  12.20 -99.000   5.689   4.247   1.438   5.644   4.247   1.395   0.000   0.002  490.11  387.97  178.16  209.61    0.00    0.21 -99.000 -99.000 -99.000 
 1982 159   246  20.50  32.20  19.40 -99.000   5.071   3.712   1.356   5.030   3.712   1.315   0.000   0.002  495.18  393.00  181.87  210.92    0.00    0.21 -99.000 -99.000 -99.000 
 1982 160   247  24.80  28.30  17.20 -99.000   5.777   4.159   1.615   5.728   4.159   1.566   0.000   0.002  500.95  398.73  186.03  212.49    0.00    0.21 -99.000 -99.000 -99.000 
 1982 161   248  29.10  24.40   8.30 -99.000   6.051   4.258   1.789   5.996   4.258   1.736   0.000   0.002  507.01  404.73  190.29  214.22    0.00    0.21 -99.000 -99.000 -99.000 
 1982 162   249  11.90  21.70  14.40 -99.000   2.513   1.731   0.781   2.490   1.731   0.757   0.000   0.002  509.52  407.22  192.02  214.98    0.00    0.22 -99.000 -99.000 -99.000 
 1982 163   250  22.90  25.60  13.90 -99.000   5.061   3.389   1.668   4.739   3.389   1.348   0.000   0.002  514.58  411.96  195.41  216.33    0.00    0.22 -99.000 -99.000 -99.000 
 1982 164   251  16.70  26.70  15.00 -99.000   3.771   2.447   1.322   3.732   2.447   1.283   0.000   0.002  518.35  415.69  197.86  217.61    0.00    0.22 -99.000 -99.000 -99.000 
 1982 165   252  13.80  30.00  17.80 -99.000   3.306   2.069   1.236   3.269   2.069   1.199   0.000   0.002  521.66  418.96  199.92  218.81    0.00    0.22 -99.000 -99.000 -99.000 
 1982 166   253  21.60  27.80  17.20 -99.000   5.034   3.023   2.009   4.975   3.023   1.949   0.000   0.002  526.69  423.93  202.95  220.76    0.00    0.22 -99.000 -99.000 -99.000 
 1982 167   254  29.70  24.40  12.80 -99.000   6.533   3.732   2.798   6.450   3.732   2.716   0.000   0.002  533.22  430.38  206.68  223.47    0.00    0.23 -99.000 -99.000 -99.000 
 1982 168   255  21.70  28.90  13.30 -99.000   5.043   2.734   2.307   4.413   2.734   1.677   0.000   0.002  538.27  434.79  209.41  225.15    0.00    0.23 -99.000 -99.000 -99.000 
 1982 169   256  17.60  24.40  17.80 -99.000   4.016   2.071   1.944   3.959   2.071   1.886   0.000   0.002  542.28  438.75  211.48  227.04    0.00    0.23 -99.000 -99.000 -99.000 
 1982 170   257  26.70  25.60  12.80 -99.000   5.946   2.886   3.058   4.952   2.886   2.064   0.000   0.002  548.23  443.70  214.37  229.10    0.00    0.23 -99.000 -99.000 -99.000 
 1982 171   258  27.20  29.40  16.10 -99.000   6.480   2.941   3.536   4.250   2.932   1.315   0.000   0.002  554.71  447.95  217.30  230.42    0.00    0.24 -99.000 -99.000 -99.000 
 1982 172   259  21.70  30.00  14.40 -99.000   5.139   2.177   2.960   3.191   2.177   1.012   0.000   0.002  559.85  451.15  219.48  231.43    0.00    0.24 -99.000 -99.000 -99.000 
 1982 173   260  28.00  27.80  13.90 -99.000   6.447   2.499   3.946   2.889   2.499   0.389   0.000   0.002  566.29  454.04  221.98  231.82    0.00    0.24 -99.000 -99.000 -99.000 
 1982 174   261  16.50  26.70  16.70 -99.000   3.996   1.402   2.593   3.921   1.402   2.517   0.000   0.002  570.29  457.96  223.38  234.34    0.00    0.24 -99.000 -99.000 -99.000 
