*N2O emissions output file

*DSSAT Cropping System Model Ver. 4.8.5.000 -release  SEP 11, 2025 14:40:05

*RUN   1        : DRYLAND  - 0 KG N/HA      CSCER048 KSAS8101    1
 MODEL          : CSCER048 - Wheat
 EXPERIMENT     : KSAS8101 WH N RESPONSE,KANSAS STATE  3FE(N)*2IR  (DSSAT3)
 DATA PATH      :
 TREATMENT  1   : DRYLAND  - 0 KG N/HA      CSCER048
  
!              |------------------------------ Cumulative -----------------------------|------------------------------ Daily ----------------------------------|
!               N2Oemit  N2emit  NOemit   Denit  Nitrif   N2O-denit+nit      N2      NO N2Oemit  N2emit  NOemit   Denit  Nitrif   N2O-denit+nit      N2      NO   Denitrification (g[N]/ha) by soil depth (cm):                           Nitrification (g[N]/ha) by soil depth (cm):                             N2O flux (g[N]/ha) by soil depth (cm):                                  N2 flux (g[N]/ha) by soil depth (cm):                                   NO flux (g[N]/ha) by soil depth (cm):
!                 kg/ha   kg/ha   kg/ha   kg/ha   kg/ha   kg/ha   kg/ha   kg/ha   kg/ha    g/ha    g/ha    g/ha    g/ha    g/ha    g/ha    g/ha    g/ha    g/ha     0-5    5-15   15-30   30-45   45-60   60-90  90-120 120-150 150-180     0-5    5-15   15-30   30-45   45-60   60-90  90-120 120-150 150-180     0-5    5-15   15-30   30-45   45-60   60-90  90-120 120-150 150-180     0-5    5-15   15-30   30-45   45-60   60-90  90-120 120-150 150-180     0-5    5-15   15-30   30-45   45-60   60-90  90-120 120-150 150-180
@YEAR DOY   DAS   N2OEC    N2EC    NOEC    NDNC    NITC   N2ODC   N2ONC   N2FLC   NOFLC  N2OGED   N2GED   NOGED    NDND   NITRD   N2ODD   N2OND   N2FLD   NOFLD   NDN1D   NDN2D   NDN3D   NDN4D   NDN5D   NDN6D   NDN7D   NDN8D   NDN9D   NIT1D   NIT2D   NIT3D   NIT4D   NIT5D   NIT6D   NIT7D   NIT8D   NIT9D   N2O1D   N2O2D   N2O3D   N2O4D   N2O5D   N2O6D   N2O7D   N2O8D   N2O9D   N2F1D   N2F2D   N2F3D   N2F4D   N2F5D   N2F6D   N2F7D   N2F8D   N2F9D   NOF1D   NOF2D   NOF3D   NOF4D   NOF5D   NOF6D   NOF7D   NOF8D   NOF9D   
 1981 279     1    0.00    0.00    0.00    0.00    22.1   0.000   0.022   0.000   0.161     0.3     0.0     1.9     0.0   22094    0.00   22.09    0.00  161.14     0.0     0.0     0.0     0.0     0.0     0.0     0.0     0.0     0.0    711.   1453.   2124.   1763.   1775.   3146.   3952.   3717.   3452.     0.7     1.5     2.1     1.8     1.8     3.1     4.0     3.7     3.5     0.0     0.0     0.0     0.0     0.0     0.0     0.0     0.0     0.0     4.7     9.5    13.2    13.0    13.0    24.1    29.7    27.9    25.9
 1981 280     2    0.00    0.00    0.01    0.00    35.2   0.000   0.035   0.000   0.257     0.5     0.0     3.6     0.0   13146    0.00   13.15    0.00   96.10     0.0     0.0     0.0     0.0     0.0     0.0     0.0     0.0     0.0    413.    841.   1193.    991.   1004.   1800.   2348.   2310.   2246.     0.4     0.8     1.2     1.0     1.0     1.8     2.3     2.3     2.2     0.0     0.0     0.0     0.0     0.0     0.0     0.0     0.0     0.0     2.8     5.5     7.4     7.3     7.4    13.8    17.6    17.4    16.9
 1981 281     3    0.00    0.00    0.01    0.00    43.2   0.000   0.043   0.000   0.316     0.8     0.0     5.1     0.0    7992    0.00    7.99    0.00   58.50     0.0     0.0     0.0     0.0     0.0     0.0     0.0     0.0     0.0    250.    522.    686.    572.    583.   1052.   1416.   1446.   1465.     0.3     0.5     0.7     0.6     0.6     1.1     1.4     1.4     1.5     0.0     0.0     0.0     0.0     0.0     0.0     0.0     0.0     0.0     1.7     3.4     4.3     4.2     4.3     8.1    10.6    10.9    11.0
 1981 282     4    0.00    0.00    0.02    0.00    48.2   0.000   0.048   0.000   0.352     1.0     0.0     6.7     0.0    5005    0.00    5.01    0.00   36.69     0.0     0.0     0.0     0.0     0.0     0.0     0.0     0.0     0.0    115.    352.    412.    344.    352.    637.    881.    932.    980.     0.1     0.4     0.4     0.3     0.4     0.6     0.9     0.9     1.0     0.0     0.0     0.0     0.0     0.0     0.0     0.0     0.0     0.0     0.8     2.3     2.6     2.5     2.6     4.9     6.6     7.0     7.4
 1981 283     5    0.00    0.00    0.03    0.00    51.7   0.000   0.052   0.000   0.377     1.2     0.0     7.9     0.0    3421    0.00    3.42    0.00   25.06     0.0     0.0     0.0     0.0     0.0     0.0     0.0     0.0     0.0     84.    271.    275.    229.    235.    420.    588.    634.    685.     0.1     0.3     0.3     0.2     0.2     0.4     0.6     0.6     0.7     0.0     0.0     0.0     0.0     0.0     0.0     0.0     0.0     0.0     0.6     1.8     1.7     1.7     1.7     3.2     4.4     4.8     5.1
 1981 284     6    0.01    0.00    0.03    0.00    54.0   0.000   0.054   0.000   0.395     1.4     0.0     9.3     0.0    2358    0.00    2.36    0.00   17.26     0.0     0.0     0.0     0.0     0.0     0.0     0.0     0.0     0.0     51.    213.    186.    154.    158.    279.    396.    437.    484.     0.1     0.2     0.2     0.2     0.2     0.3     0.4     0.4     0.5     0.0     0.0     0.0     0.0     0.0     0.0     0.0     0.0     0.0     0.4     1.4     1.2     1.1     1.2     2.1     3.0     3.3     3.6
 1981 285     7    0.01    0.00    0.05    0.00    55.8   0.000   0.056   0.000   0.444     1.5     0.0    11.1     0.0    1797    0.00    1.80    0.00   49.20     0.0     0.0     0.0     0.0     0.0     0.0     0.0     0.0     0.0     44.    191.    143.    118.    120.    206.    291.    322.    361.     0.0     0.2     0.1     0.1     0.1     0.2     0.3     0.3     0.4     0.0     0.0     0.0     0.0     0.0     0.0     0.0     0.0     0.0     1.2     4.7     3.3     3.2     3.3     5.9     8.2     9.1    10.2
 1981 286     8    0.01    0.00    0.06    0.00    57.3   0.000   0.057   0.000   0.477     1.4     0.0    11.1     0.0    1496    0.00    1.50    0.00   32.99     0.0     0.0     0.0     0.0     0.0     0.0     0.0     0.0     0.0     79.    189.    120.     97.     98.    161.    224.    247.    280.     0.1     0.2     0.1     0.1     0.1     0.2     0.2     0.2     0.3     0.0     0.0     0.0     0.0     0.0     0.0     0.0     0.0     0.0     1.6     3.8     2.3     2.2     2.2     3.8     5.1     5.7     6.4
 1981 287     9    0.01    0.00    0.07    0.00    58.6   0.000   0.059   0.000   0.500     1.7     0.0    13.2     0.0    1283    0.00    1.28    0.00   22.86     0.0     0.0     0.0     0.0     0.0     0.0     0.0     0.0     0.0     82.    202.    105.     83.     83.    130.    178.    196.    224.     0.1     0.2     0.1     0.1     0.1     0.1     0.2     0.2     0.2     0.0     0.0     0.0     0.0     0.0     0.0     0.0     0.0     0.0     1.3     3.3     1.6     1.5     1.5     2.5     3.3     3.6     4.2
 1981 288    10    0.01    0.00    0.08    0.00    59.6   0.000   0.060   0.000   0.515     1.8     0.0    14.9     0.0    1040    0.00    1.04    0.00   14.95     0.0     0.0     0.0     0.0     0.0     0.0     0.0     0.0     0.0     79.    201.     83.     65.     65.     98.    133.    146.    169.     0.1     0.2     0.1     0.1     0.1     0.1     0.1     0.1     0.2     0.0     0.0     0.0     0.0     0.0     0.0     0.0     0.0     0.0     1.0     2.7     1.0     1.0     1.0     1.5     2.0     2.2     2.5
 1981 289    11    0.01    0.00    0.10    0.00    60.5   0.000   0.060   0.000   0.525     2.1     0.0    16.9     0.0     849    0.00    0.85    0.00    9.87     0.0     0.0     0.0     0.0     0.0     0.0     0.0     0.0     0.0     77.    198.     64.     50.     51.     73.     99.    109.    127.     0.1     0.2     0.1     0.1     0.1     0.1     0.1     0.1     0.1     0.0     0.0     0.0     0.0     0.0     0.0     0.0     0.0     0.0     0.8     2.1     0.6     0.6     0.6     0.9     1.2     1.3     1.6
 1981 290    12    0.02    0.00    0.12    0.00    61.2   0.000   0.061   0.000   0.531     2.2     0.0    18.4     0.0     708    0.00    0.71    0.00    6.65     0.0     0.0     0.0     0.0     0.0     0.0     0.0     0.0     0.0     73.    197.     50.     40.     41.     55.     75.     82.     96.     0.1     0.2     0.0     0.0     0.0     0.1     0.1     0.1     0.1     0.0     0.0     0.0     0.0     0.0     0.0     0.0     0.0     0.0     0.7     1.7     0.4     0.4     0.4     0.6     0.7     0.8     1.0
 1981 291    13    0.02    0.00    0.14    0.00    61.7   0.000   0.062   0.000   0.535     2.2     0.0    18.6     0.0     508    0.00    0.51    0.00    3.86     0.0     0.0     0.0     0.0     0.0     0.0     0.0     0.0     0.0     70.     94.     40.     32.     34.     44.     58.     63.     74.     0.1     0.1     0.0     0.0     0.0     0.0     0.1     0.1     0.1     0.0     0.0     0.0     0.0     0.0     0.0     0.0     0.0     0.0     0.5     0.6     0.3     0.3     0.3     0.4     0.5     0.5     0.6
 1981 292    14    0.02    0.00    0.16    0.00    62.2   0.000   0.062   0.000   0.539     2.4     0.0    20.0     0.0     538    0.00    0.54    0.00    3.74     0.0     0.0     0.0     0.0     0.0     0.0     0.0     0.0     0.0     64.    215.     29.     24.     26.     33.     44.     47.     57.     0.1     0.2     0.0     0.0     0.0     0.0     0.0     0.0     0.1     0.0     0.0     0.0     0.0     0.0     0.0     0.0     0.0     0.0     0.4     1.4     0.2     0.2     0.2     0.3     0.3     0.4     0.4
 1981 293    15    0.02    0.00    0.18    0.00    62.7   0.000   0.063   0.000   0.542     2.6     0.0    22.2     0.0     478    0.00    0.48    0.00    3.33     0.0     0.0     0.0     0.0     0.0     0.0     0.0     0.0     0.0     59.    207.     23.     20.     22.     27.     36.     38.     45.     0.1     0.2     0.0     0.0     0.0     0.0     0.0     0.0     0.0     0.0     0.0     0.0     0.0     0.0     0.0     0.0     0.0     0.0     0.4     1.4     0.1     0.1     0.2     0.2     0.3     0.3     0.3
 1981 294    16    0.03    0.00    0.20    0.00    63.2   0.000   0.063   0.000   0.545     2.7     0.0    23.0     0.0     472    0.00    0.47    0.00    3.28     0.0     0.0     0.0     0.0     0.0     0.0     0.0     0.0     0.0     53.    224.     23.     19.     22.     26.     33.     34.     39.     0.1     0.2     0.0     0.0     0.0     0.0     0.0     0.0     0.0     0.0     0.0     0.0     0.0     0.0     0.0     0.0     0.0     0.0     0.4     1.5     0.1     0.1     0.2     0.2     0.2     0.3     0.3
 1981 295    17    0.03    0.00    0.23    0.00    63.6   0.000   0.064   0.000   0.549     2.8     0.0    23.4     0.0     440    0.00    0.44    0.00    3.05     0.0     0.0     0.0     0.0     0.0     0.0     0.0     0.0     0.0     41.    222.     21.     18.     20.     24.     30.     30.     34.     0.0     0.2     0.0     0.0     0.0     0.0     0.0     0.0     0.0     0.0     0.0     0.0     0.0     0.0     0.0     0.0     0.0     0.0     0.3     1.5     0.1     0.1     0.1     0.2     0.2     0.2     0.3
 1981 296    18    0.03    0.00    0.25    0.00    64.0   0.000   0.064   0.000   0.551     2.7     0.0    23.5     0.0     370    0.00    0.37    0.00    2.57     0.0     0.0     0.0     0.0     0.0     0.0     0.0     0.0     0.0     29.    190.     17.     15.     17.     21.     26.     25.     29.     0.0     0.2     0.0     0.0     0.0     0.0     0.0     0.0     0.0     0.0     0.0     0.0     0.0     0.0     0.0     0.0     0.0     0.0     0.2     1.3     0.1     0.1     0.1     0.2     0.2     0.2     0.2
 1981 297    19    0.03    0.00    0.27    0.00    64.3   0.000   0.064   0.000   0.553     2.7     0.0    23.3     0.0     322    0.00    0.32    0.00    2.24     0.0     0.0     0.0     0.0     0.0     0.0     0.0     0.0     0.0     21.    165.     15.     14.     16.     19.     24.     23.     26.     0.0     0.2     0.0     0.0     0.0     0.0     0.0     0.0     0.0     0.0     0.0     0.0     0.0     0.0     0.0     0.0     0.0     0.0     0.2     1.1     0.1     0.1     0.1     0.1     0.2     0.2     0.2
 1981 298    20    0.04    0.00    0.30    0.00    64.6   0.000   0.065   0.000   0.555     2.6     0.0    22.8     0.0     287    0.00    0.29    0.00    2.00     0.0     0.0     0.0     0.0     0.0     0.0     0.0     0.0     0.0     16.    146.     13.     12.     15.     18.     22.     21.     23.     0.0     0.1     0.0     0.0     0.0     0.0     0.0     0.0     0.0     0.0     0.0     0.0     0.0     0.0     0.0     0.0     0.0     0.0     0.1     1.0     0.1     0.1     0.1     0.1     0.2     0.2     0.2
 1981 299    21    0.04    0.00    0.32    0.00    64.9   0.000   0.065   0.000   0.557     2.3     0.0    20.1     0.0     255    0.00    0.25    0.00    1.78     0.0     0.0     0.0     0.0     0.0     0.0     0.0     0.0     0.0     22.    120.     11.     11.     13.     16.     20.     19.     21.     0.0     0.1     0.0     0.0     0.0     0.0     0.0     0.0     0.0     0.0     0.0     0.0     0.0     0.0     0.0     0.0     0.0     0.0     0.2     0.8     0.1     0.1     0.1     0.1     0.2     0.1     0.2
 1981 300    22    0.04    0.00    0.34    0.00    65.1   0.000   0.065   0.000   0.559     2.3     0.0    20.2     0.0     229    0.00    0.23    0.00    1.61     0.0     0.0     0.0     0.0     0.0     0.0     0.0     0.0     0.0     19.    105.     10.     10.     12.     15.     19.     18.     20.     0.0     0.1     0.0     0.0     0.0     0.0     0.0     0.0     0.0     0.0     0.0     0.0     0.0     0.0     0.0     0.0     0.0     0.0     0.1     0.7     0.1     0.1     0.1     0.1     0.1     0.1     0.2
 1981 301    23    0.04    0.00    0.36    0.00    65.3   0.000   0.065   0.000   0.560     2.2     0.0    19.9     0.0     238    0.00    0.24    0.00    1.67     0.0     0.0     0.0     0.0     0.0     0.0     0.0     0.0     0.0     19.    108.     11.     11.     13.     17.     20.     19.     21.     0.0     0.1     0.0     0.0     0.0     0.0     0.0     0.0     0.0     0.0     0.0     0.0     0.0     0.0     0.0     0.0     0.0     0.0     0.1     0.7     0.1     0.1     0.1     0.1     0.2     0.1     0.2
 1981 302    24    0.05    0.00    0.38    0.00    65.6   0.000   0.066   0.000   0.562     2.2     0.0    19.3     0.0     272    0.00    0.27    0.00    1.91     0.0     0.0     0.0     0.0     0.0     0.0     0.0     0.0     0.0     20.    127.     13.     13.     15.     19.     23.     21.     22.     0.0     0.1     0.0     0.0     0.0     0.0     0.0     0.0     0.0     0.0     0.0     0.0     0.0     0.0     0.0     0.0     0.0     0.0     0.1     0.8     0.1     0.1     0.1     0.1     0.2     0.2     0.2
 1981 303    25    0.05    0.00    0.40    0.00    65.9   0.000   0.066   0.000   0.564     2.1     0.0    18.5     0.0     308    0.00    0.31    0.00    2.16     0.0     0.0     0.0     0.0     0.0     0.0     0.0     0.0     0.0     21.    148.     15.     15.     17.     22.     25.     22.     23.     0.0     0.1     0.0     0.0     0.0     0.0     0.0     0.0     0.0     0.0     0.0     0.0     0.0     0.0     0.0     0.0     0.0     0.0     0.1     1.0     0.1     0.1     0.1     0.2     0.2     0.2     0.2
 1981 304    26    0.05    0.00    0.41    0.00    66.2   0.000   0.066   0.000   0.567     2.0     0.0    17.6     0.0     339    0.00    0.34    0.00    2.38     0.0     0.0     0.0     0.0     0.0     0.0     0.0     0.0     0.0     21.    166.     18.     17.     19.     24.     27.     23.     24.     0.0     0.2     0.0     0.0     0.0     0.0     0.0     0.0     0.0     0.0     0.0     0.0     0.0     0.0     0.0     0.0     0.0     0.0     0.1     1.1     0.1     0.1     0.1     0.2     0.2     0.2     0.2
 1981 305    27    0.05    0.00    0.43    0.00    66.6   0.000   0.067   0.000   0.569     1.8     0.0    16.2     0.0     376    0.00    0.38    0.00    2.63     0.0     0.0     0.0     0.0     0.0     0.0     0.0     0.0     0.0     25.    185.     20.     19.     21.     26.     29.     25.     25.     0.0     0.2     0.0     0.0     0.0     0.0     0.0     0.0     0.0     0.0     0.0     0.0     0.0     0.0     0.0     0.0     0.0     0.0     0.2     1.2     0.1     0.1     0.2     0.2     0.2     0.2     0.2
 1981 306    28    0.05    0.00    0.44    0.00    66.8   0.000   0.067   0.000   0.571     1.2     0.0    10.8     0.0     197    0.00    0.20    0.00    1.26     0.0     0.0     0.0     0.0     0.0     0.0     0.0     0.0     0.0     11.     63.      7.      7.      8.     23.     29.     25.     24.     0.0     0.1     0.0     0.0     0.0     0.0     0.0     0.0     0.0     0.0     0.0     0.0     0.0     0.0     0.0     0.0     0.0     0.0     0.1     0.3     0.0     0.0     0.1     0.2     0.2     0.2     0.2
 1981 307    29    0.05    0.00    0.45    0.00    67.0   0.000   0.067   0.000   0.572     1.2     0.0    10.9     0.0     216    0.00    0.22    0.00    1.37     0.0     0.0     0.0     0.0     0.0     0.0     0.0     0.0     0.0     18.     73.      8.      8.      9.     22.     28.     24.     25.     0.0     0.1     0.0     0.0     0.0     0.0     0.0     0.0     0.0     0.0     0.0     0.0     0.0     0.0     0.0     0.0     0.0     0.0     0.1     0.4     0.0     0.1     0.1     0.2     0.2     0.2     0.2
 1981 308    30    0.06    0.00    0.46    0.00    67.3   0.000   0.067   0.000   0.574     1.3     0.0    11.9     0.0     279    0.00    0.28    0.00    1.86     0.0     0.0     0.0     0.0     0.0     0.0     0.0     0.0     0.0     56.     97.     10.     10.     11.     23.     26.     23.     24.     0.1     0.1     0.0     0.0     0.0     0.0     0.0     0.0     0.0     0.0     0.0     0.0     0.0     0.0     0.0     0.0     0.0     0.0     0.4     0.6     0.1     0.1     0.1     0.2     0.2     0.2     0.2
 1981 309    31    0.06    0.00    0.47    0.00    67.5   0.000   0.068   0.000   0.575     1.0     0.0     9.5     0.0     216    0.00    0.22    0.00    1.33     0.0     0.0     0.0     0.0     0.0     0.0     0.0     0.0     0.0     21.     81.      8.      9.     11.     20.     22.     22.     23.     0.0     0.1     0.0     0.0     0.0     0.0     0.0     0.0     0.0     0.0     0.0     0.0     0.0     0.0     0.0     0.0     0.0     0.0     0.1     0.4     0.0     0.1     0.1     0.1     0.2     0.2     0.2
 1981 310    32    0.06    0.00    0.48    0.10    67.8   0.021   0.068   0.080   0.715     1.2     0.4    10.8   101.1     263   21.10    0.26   80.05  139.28     0.0     4.8    17.2    26.4    29.3    23.4     0.0     0.0     0.0     61.     85.      9.     10.     11.     22.     22.     20.     22.     0.1     0.5     3.5     5.7     6.5     5.0     0.0     0.0     0.0     0.0     4.4    13.8    20.8    22.7    18.4     0.0     0.0     0.0     0.4     2.7    15.8    38.4    43.8    37.6     0.2     0.2     0.2
 1981 311    33    0.06    0.00    0.49    0.14    68.1   0.028   0.068   0.107   0.764     1.3     1.1    11.2    34.3     281    6.86    0.28   27.44   49.61     0.0     0.5     6.0     9.3    10.5     8.1     0.0     0.0     0.0     56.    110.     10.     10.     11.     18.     25.     21.     21.     0.1     0.2     1.2     1.9     2.2     1.6     0.0     0.0     0.0     0.0     0.5     4.8     7.4     8.3     6.5     0.0     0.0     0.0     0.4     1.0     6.5    13.3    15.9    12.1     0.2     0.2     0.2
 1981 312    34    0.06    0.00    0.51    0.15    68.5   0.031   0.068   0.120   0.790     1.5     1.9    11.9    15.9     398    3.19    0.40   12.70   25.78     0.0     0.0     1.6     3.6     4.1     3.1     3.6     0.0     0.0     52.    227.     11.     10.     11.     18.     26.     22.     22.     0.1     0.2     0.3     0.7     0.9     0.6     0.8     0.0     0.0     0.0     0.0     1.3     2.9     3.2     2.5     2.8     0.0     0.0     0.4     1.5     1.9     5.1     6.2     4.6     5.9     0.2     0.2
 1981 313    35    0.06    0.01    0.51    0.24    68.7   0.049   0.069   0.193   0.905     1.1     1.9     8.7    90.6     194   17.77    0.19   72.84  115.50     0.0     0.0    17.7    22.0    27.4    12.7    11.0     0.0     0.0     10.     79.      7.      7.      8.     17.     24.     21.     22.     0.0     0.1     3.1     4.1     5.9     2.4     2.4     0.0     0.0     0.0     0.0    14.6    17.9    21.5    10.3     8.6     0.0     0.0     0.0     0.4    12.1    27.4    39.4    18.2    17.6     0.2     0.2
 1981 314    36    0.06    0.01    0.53    0.36    68.9   0.072   0.069   0.290   1.066     1.8     3.8    13.4   120.2     193   23.51    0.19   96.64  160.81     0.0     0.0    15.1    18.1    24.0    22.8    21.8    18.2     0.0     47.     63.      6.      5.      5.     12.     17.     18.     19.     0.0     0.1     2.4     3.1     4.9     4.2     4.7     4.3     0.0     0.0     0.0    12.8    15.1    19.1    18.6    17.2    13.9     0.0     0.3     0.3     9.1    20.5    32.9    31.5    34.3    31.8     0.1
 1981 315    37    0.07    0.01    0.54    0.41    69.1   0.081   0.069   0.328   1.129     2.1     5.5    15.2    46.5     198    8.61    0.20   37.87   63.12     0.0     0.0     5.2     6.3     8.4     7.8     7.4     6.4     5.0     41.     82.      7.      6.      5.     10.     13.     14.     20.     0.0     0.1     0.8     1.0     1.6     1.3     1.5     1.4     1.2     0.0     0.0     4.4     5.3     6.8     6.5     6.0     5.0     3.8     0.3     0.5     4.1     6.9    11.3     9.9    10.8    10.6     8.7
 1981 316    38    0.07    0.02    0.56    0.43    69.3   0.086   0.069   0.347   1.166     2.6     7.6    17.9    24.6     291    4.71    0.29   19.86   36.56     0.0     0.0     1.7     2.4     3.3     3.0     2.9     6.3     5.0     38.    175.      8.      6.      6.     11.     14.     13.     19.     0.0     0.2     0.3     0.4     0.6     0.5     0.5     1.4     1.1     0.0     0.0     1.5     2.1     2.7     2.5     2.3     5.0     3.9     0.3     1.1     1.5     2.7     4.4     3.7     4.1    10.2     8.6
 1981 317    39    0.07    0.03    0.58    0.46    69.6   0.090   0.070   0.367   1.202     3.1     9.8    21.0    23.9     278    4.62    0.28   19.24   36.02     0.0     0.0     0.8     2.4     3.3     3.0     2.9     6.4     5.0     36.    162.      8.      7.      6.     12.     15.     13.     18.     0.0     0.2     0.1     0.4     0.6     0.5     0.6     1.4     1.2     0.0     0.0     0.7     2.1     2.7     2.5     2.4     5.0     3.9     0.2     1.1     0.7     2.7     4.4     3.8     4.1    10.3     8.6
 1981 318    40    0.07    0.04    0.61    0.48    69.9   0.095   0.070   0.385   1.237     3.6    12.1    24.2    23.0     271    4.49    0.27   18.47   35.17     0.0     0.0     0.0     2.4     3.3     3.0     2.9     6.4     5.0     33.    147.     18.      7.      7.     13.     16.     12.     17.     0.0     0.1     0.0     0.4     0.6     0.5     0.6     1.4     1.2     0.0     0.0     0.0     2.0     2.7     2.5     2.3     5.0     3.9     0.2     1.0     0.1     2.6     4.4     3.8     4.1    10.3     8.6
 1981 319    41    0.08    0.06    0.63    0.50    70.2   0.100   0.070   0.405   1.274     4.0    13.9    26.9    24.3     297    4.74    0.30   19.52   37.25     0.0     0.0     0.0     2.5     3.6     3.2     3.1     6.7     5.3     35.    160.     20.      8.      8.     16.     18.     13.     18.     0.0     0.2     0.0     0.4     0.7     0.5     0.6     1.5     1.2     0.0     0.0     0.0     2.1     2.9     2.7     2.5     5.3     4.1     0.3     1.0     0.1     2.7     4.8     4.1     4.4    10.9     9.0
 1981 320    42    0.08    0.07    0.66    0.53    70.5   0.105   0.071   0.425   1.314     4.3    15.5    29.1    25.4     328    4.97    0.33   20.45   39.19     0.0     0.0     0.0     2.4     3.8     3.4     3.2     7.1     5.5     35.    176.     22.     10.     10.     19.     21.     15.     19.     0.0     0.2     0.0     0.4     0.7     0.6     0.6     1.5     1.3     0.0     0.0     0.0     2.0     3.1     2.9     2.6     5.5     4.2     0.3     1.2     0.1     2.7     5.1     4.3     4.7    11.4     9.4
 1981 321    43    0.09    0.09    0.69    0.56    70.9   0.110   0.071   0.446   1.355     4.6    16.7    31.1    26.6     375    5.22    0.37   21.40   41.33     0.0     0.0     0.0     2.2     4.1     3.7     3.4     7.4     5.7     37.    202.     26.     13.     13.     23.     25.     16.     20.     0.0     0.2     0.0     0.3     0.8     0.6     0.7     1.6     1.3     0.0     0.0     0.0     1.9     3.4     3.1     2.8     5.8     4.4     0.3     1.3     0.2     2.5     5.6     4.7     5.0    12.0     9.9
 1981 322    44    0.09    0.11    0.73    0.58    71.3   0.115   0.071   0.468   1.396     4.8    17.7    32.6    26.4     387    5.20    0.39   21.19   41.28     0.0     0.0     0.0     1.8     4.2     3.7     3.5     7.5     5.8     34.    208.     27.     15.     15.     26.     26.     17.     20.     0.0     0.2     0.0     0.3     0.8     0.6     0.7     1.6     1.3     0.0     0.0     0.0     1.5     3.4     3.1     2.8     5.9     4.5     0.2     1.4     0.2     2.0     5.7     4.7     5.0    12.1     9.9
 1981 323    45    0.10    0.13    0.76    0.61    71.7   0.120   0.072   0.489   1.438     5.0    18.5    33.9    26.4     412    5.22    0.41   21.17   41.68     0.0     0.0     0.0     1.2     4.3     3.8     3.5     7.6     5.9     32.    220.     28.     18.     17.     29.     29.     18.     21.     0.0     0.2     0.0     0.2     0.8     0.6     0.7     1.7     1.4     0.0     0.0     0.0     1.0     3.5     3.2     2.9     6.0     4.5     0.2     1.4     0.2     1.5     5.8     4.9     5.2    12.4    10.1
 1981 324    46    0.10    0.15    0.79    0.63    72.1   0.125   0.072   0.508   1.477     5.0    18.8    34.4    24.5     374    4.89    0.37   19.65   38.98     0.0     0.0     0.0     0.6     4.0     3.6     3.4     7.3     5.7     28.    195.     26.     18.     17.     27.     27.     17.     19.     0.0     0.2     0.0     0.1     0.8     0.6     0.7     1.6     1.3     0.0     0.0     0.0     0.5     3.3     3.0     2.7     5.7     4.4     0.2     1.3     0.2     0.7     5.5     4.6     4.9    11.8     9.7
 1981 325    47    0.11    0.16    0.83    0.66    72.4   0.130   0.072   0.526   1.512     5.1    19.2    35.2    22.1     318    4.44    0.32   17.66   35.28     0.0     0.0     0.0     0.0     3.6     3.3     3.1     6.8     5.3     20.    154.     21.     28.     15.     24.     24.     15.     17.     0.0     0.2     0.0     0.0     0.7     0.6     0.6     1.5     1.2     0.0     0.0     0.0     0.0     3.0     2.7     2.5     5.3     4.1     0.1     1.0     0.1     0.2     4.9     4.2     4.5    11.0     9.1
 1981 326    48    0.11    0.18    0.87    0.68    72.6   0.134   0.073   0.542   1.544     5.1    19.4    35.7    20.3     250    4.09    0.25   16.21   32.18     0.0     0.0     0.0     0.0     3.2     3.0     2.8     6.3     5.0     14.    116.     16.     21.     13.     20.     21.     13.     15.     0.0     0.1     0.0     0.0     0.6     0.5     0.6     1.4     1.1     0.0     0.0     0.0     0.0     2.6     2.5     2.3     4.9     3.8     0.1     0.8     0.1     0.2     4.4     3.8     4.1    10.2     8.6
 1981 327    49    0.12    0.20    0.90    0.70    72.9   0.138   0.073   0.558   1.575     5.1    19.6    35.9    19.6     218    3.96    0.22   15.67   30.99     0.0     0.0     0.0     0.0     3.0     2.9     2.8     6.1     4.9     12.     98.     14.     19.     12.     19.     19.     12.     14.     0.0     0.1     0.0     0.0     0.6     0.5     0.5     1.3     1.1     0.0     0.0     0.0     0.0     2.5     2.4     2.2     4.8     3.7     0.1     0.6     0.1     0.1     4.1     3.6     4.0     9.9     8.3
 1981 328    50    0.12    0.22    0.94    0.71    73.0   0.141   0.073   0.573   1.605     5.1    19.6    36.0    19.2     193    3.87    0.19   15.31   30.19     0.0     0.0     0.0     0.0     2.9     2.8     2.7     6.0     4.8     10.     83.     12.     17.     11.     18.     18.     11.     14.     0.0     0.1     0.0     0.0     0.5     0.5     0.5     1.3     1.1     0.0     0.0     0.0     0.0     2.4     2.3     2.2     4.7     3.7     0.1     0.5     0.1     0.1     4.0     3.6     3.9     9.7     8.2
 1981 329    51    0.13    0.24    0.97    0.73    73.2   0.145   0.073   0.589   1.636     5.1    19.5    35.9    19.3     185    3.90    0.19   15.41   30.34     0.0     0.0     0.0     0.0     2.9     2.8     2.7     6.1     4.8      9.     77.     12.     16.     11.     17.     18.     11.     14.     0.0     0.1     0.0     0.0     0.5     0.5     0.5     1.3     1.1     0.0     0.0     0.0     0.0     2.3     2.4     2.2     4.8     3.7     0.1     0.5     0.1     0.1     3.9     3.6     4.0     9.8     8.3
 1981 330    52    0.13    0.26    1.01    0.75    73.4   0.149   0.073   0.605   1.668     5.0    19.3    35.8    20.4     203    4.12    0.20   16.31   32.15     0.0     0.0     0.0     0.0     3.0     3.0     2.9     6.4     5.1     10.     84.     13.     18.     13.     19.     20.     12.     15.     0.0     0.1     0.0     0.0     0.6     0.5     0.6     1.4     1.2     0.0     0.0     0.0     0.0     2.4     2.6     2.4     5.0     3.9     0.1     0.6     0.1     0.1     4.1     3.9     4.2    10.4     8.7
 1981 331    53    0.14    0.28    1.04    0.78    73.6   0.154   0.074   0.622   1.701     5.0    19.2    35.6    20.8     212    4.20    0.21   16.59   32.76     0.0     0.0     0.0     0.0     2.9     3.1     3.0     6.6     5.2     10.     87.     14.     19.     13.     21.     21.     12.     15.     0.0     0.1     0.0     0.0     0.6     0.5     0.6     1.4     1.2     0.0     0.0     0.0     0.0     2.4     2.6     2.4     5.1     4.0     0.1     0.6     0.1     0.1     4.0     4.0     4.3    10.6     8.9
 1981 332    54    0.14    0.30    1.08    0.80    73.8   0.158   0.074   0.637   1.732     4.9    19.0    35.3    19.8     191    4.01    0.19   15.81   31.22     0.0     0.0     0.0     0.0     2.6     3.0     2.9     6.3     5.0      8.     76.     13.     17.     13.     19.     20.     12.     14.     0.0     0.1     0.0     0.0     0.5     0.5     0.6     1.4     1.2     0.0     0.0     0.0     0.0     2.1     2.5     2.3     5.0     3.9     0.1     0.5     0.1     0.1     3.6     3.8     4.2    10.2     8.6
 1981 333    55    0.15    0.32    1.11    0.81    74.0   0.162   0.074   0.652   1.762     4.9    18.7    35.1    18.8     167    3.81    0.17   15.00   29.61     0.0     0.0     0.0     0.0     2.3     2.8     2.7     6.1     4.8      6.     64.     11.     14.     11.     18.     18.     11.     14.     0.0     0.1     0.0     0.0     0.4     0.5     0.5     1.3     1.1     0.0     0.0     0.0     0.0     1.9     2.4     2.2     4.8     3.7     0.0     0.4     0.1     0.1     3.2     3.6     4.0     9.9     8.3
 1981 334    56    0.15    0.34    1.15    0.83    74.2   0.165   0.074   0.667   1.793     4.8    18.5    34.9    18.3     152    3.71    0.15   14.58   31.72     0.0     0.0     0.0     0.0     2.1     2.8     2.7     6.0     4.8      6.     56.     10.     13.     11.     17.     17.     10.     13.     0.0     0.1     0.0     0.0     0.4     0.5     0.5     1.3     1.1     0.0     0.0     0.0     0.0     1.7     2.3     2.2     4.7     3.7     0.2     1.4     0.2     0.4     3.1     3.9     4.3     9.9     8.5
 1981 335    57    0.16    0.35    1.17    0.85    74.3   0.169   0.074   0.681   1.822     3.0    11.4    21.6    17.5     102    3.57    0.10   13.97   28.76     0.0     0.0     0.0     0.0     1.8     2.7     2.6     5.8     4.6      2.     17.      8.     12.     10.     15.     16.     10.     12.     0.0     0.0     0.0     0.0     0.3     0.4     0.5     1.3     1.1     0.0     0.0     0.0     0.0     1.5     2.2     2.1     4.6     3.6     0.0     0.3     0.2     0.3     2.6     3.7     4.0     9.6     8.2
 1981 336    58    0.16    0.36    1.20    0.88    74.3   0.175   0.074   0.707   1.870     3.4    13.2    25.0    32.7      76    6.42    0.08   26.27   48.14     0.0     0.0     0.0     0.0    11.4     4.9     4.9     5.8     5.7      3.     14.      2.      4.      7.     13.     14.      9.     11.     0.0     0.0     0.0     0.0     2.2     0.8     0.9     1.2     1.3     0.0     0.0     0.0     0.0     9.2     4.1     4.0     4.5     4.4     0.0     0.2     0.0     0.1    15.1     6.3     7.1     9.4    10.0
 1981 337    59    0.16    0.38    1.23    0.90    74.4   0.179   0.074   0.725   1.903     4.2    16.2    30.9    22.0      88    4.29    0.09   17.73   33.03     0.0     0.0     0.0     0.0     4.3     1.8     4.6     5.6     5.7      8.     19.      3.      5.      8.     13.     14.      8.     11.     0.0     0.0     0.0     0.0     0.8     0.3     0.8     1.2     1.3     0.0     0.0     0.0     0.0     3.5     1.6     3.8     4.4     4.4     0.1     0.2     0.0     0.1     5.5     2.3     6.4     8.8     9.6
 1981 338    60    0.17    0.39    1.26    0.92    74.5   0.183   0.075   0.741   1.933     4.3    16.5    31.6    19.4     112    3.78    0.11   15.62   29.43     0.0     0.0     0.0     0.0     1.7     1.8     4.6     5.6     5.7      8.     42.      3.      6.      8.     13.     13.      8.     10.     0.0     0.0     0.0     0.0     0.3     0.3     0.8     1.2     1.3     0.0     0.0     0.0     0.0     1.4     1.6     3.8     4.5     4.4     0.1     0.4     0.0     0.1     2.2     2.2     6.2     8.7     9.6
 1981 339    61    0.17    0.41    1.29    0.94    74.6   0.187   0.075   0.756   1.962     4.4    16.8    32.2    19.5     107    3.80    0.11   15.71   29.33     0.0     0.0     0.0     0.0     1.7     1.8     4.7     5.6     5.7      7.     38.      3.      6.      8.     13.     13.      8.     10.     0.0     0.0     0.0     0.0     0.3     0.3     0.8     1.2     1.3     0.0     0.0     0.0     0.0     1.4     1.6     3.8     4.5     4.4     0.1     0.3     0.0     0.1     2.1     2.2     6.2     8.7     9.6
 1981 340    62    0.18    0.43    1.32    0.96    74.7   0.191   0.075   0.773   1.992     4.4    16.9    32.4    20.9      99    3.97    0.10   16.93   30.28     0.0     0.0     0.0     1.7     1.6     1.8     4.6     5.6     5.7      6.     33.      3.      5.      8.     13.     12.      8.     10.     0.0     0.0     0.0     0.2     0.3     0.3     0.8     1.1     1.3     0.0     0.0     0.0     1.4     1.4     1.5     3.8     4.4     4.4     0.0     0.2     0.0     1.6     2.1     2.1     6.1     8.6     9.5
 1981 341    63    0.18    0.45    1.36    0.99    74.8   0.195   0.075   0.791   2.023     4.4    17.1    32.7    21.5     105    4.09    0.10   17.41   31.12     0.0     0.0     0.0     1.7     1.7     1.9     4.7     5.7     5.8      6.     33.      7.      6.      8.     13.     13.      8.     10.     0.0     0.0     0.0     0.2     0.3     0.3     0.8     1.2     1.3     0.0     0.0     0.0     1.4     1.4     1.6     3.9     4.5     4.5     0.0     0.2     0.0     1.6     2.2     2.2     6.3     8.8     9.7
 1981 342    64    0.19    0.46    1.39    1.01    75.0   0.199   0.075   0.809   2.056     4.5    17.5    33.5    22.2     111    4.23    0.11   18.02   32.27     0.0     0.0     0.0     1.6     1.8     2.0     5.0     5.9     6.0      7.     35.      7.      6.      9.     15.     14.      9.     11.     0.0     0.0     0.0     0.2     0.3     0.3     0.9     1.2     1.3     0.0     0.0     0.0     1.4     1.5     1.7     4.1     4.7     4.7     0.0     0.2     0.0     1.6     2.3     2.3     6.6     9.2    10.0
 1981 343    65    0.19    0.48    1.42    1.03    75.1   0.204   0.075   0.826   2.088     4.6    17.7    33.9    21.9     113    4.18    0.11   17.73   31.92     0.0     0.0     0.0     1.4     1.7     2.0     4.9     5.9     6.0      7.     36.      7.      6.      9.     15.     14.      9.     11.     0.0     0.0     0.0     0.2     0.3     0.3     0.9     1.2     1.3     0.0     0.0     0.0     1.2     1.4     1.7     4.1     4.7     4.6     0.0     0.2     0.0     1.4     2.2     2.3     6.5     9.1    10.0
 1981 344    66    0.19    0.50    1.46    1.05    75.2   0.208   0.075   0.844   2.119     4.6    17.9    34.3    21.4     112    4.11    0.11   17.33   31.37     0.0     0.0     0.0     1.1     1.7     1.9     4.9     5.9     5.9      6.     35.      7.      7.      9.     15.     13.      9.     10.     0.0     0.0     0.0     0.2     0.3     0.3     0.9     1.2     1.3     0.0     0.0     0.0     1.0     1.4     1.7     4.0     4.7     4.6     0.0     0.2     0.0     1.1     2.2     2.3     6.5     9.0     9.9
 1981 345    67    0.20    0.52    1.49    1.07    75.3   0.212   0.075   0.861   2.149     4.5    17.5    33.6    20.8     107    3.99    0.11   16.76   30.49     0.0     0.0     0.0     0.9     1.7     1.9     4.8     5.7     5.8      6.     33.      7.      6.      9.     14.     13.      9.     10.     0.0     0.0     0.0     0.1     0.3     0.3     0.9     1.2     1.3     0.0     0.0     0.0     0.7     1.4     1.6     3.9     4.6     4.5     0.0     0.2     0.0     0.9     2.1     2.3     6.3     8.9     9.7
 1981 346    68    0.20    0.53    1.52    1.09    75.4   0.215   0.075   0.877   2.179     4.4    17.3    33.1    19.8      96    3.83    0.10   15.99   29.23     0.0     0.0     0.0     0.6     1.6     1.8     4.6     5.6     5.7      5.     28.      6.      6.      8.     13.     12.      9.     10.     0.0     0.0     0.0     0.1     0.3     0.3     0.8     1.2     1.3     0.0     0.0     0.0     0.5     1.3     1.6     3.8     4.4     4.4     0.0     0.2     0.0     0.6     2.0     2.2     6.1     8.6     9.5
 1981 347    69    0.21    0.55    1.56    1.11    75.5   0.219   0.075   0.891   2.206     4.4    17.1    32.7    18.4      82    3.60    0.08   14.81   27.37     0.0     0.0     0.0     0.0     1.5     1.7     4.4     5.3     5.5      4.     22.      5.      5.      7.     12.     11.      8.      9.     0.0     0.0     0.0     0.0     0.3     0.3     0.8     1.1     1.2     0.0     0.0     0.0     0.0     1.2     1.5     3.6     4.2     4.2     0.0     0.1     0.0     0.0     1.9     2.0     5.8     8.2     9.1
 1981 348    70    0.21    0.57    1.59    1.13    75.5   0.223   0.076   0.906   2.233     4.3    17.0    32.4    18.3      80    3.58    0.08   14.73   27.22     0.0     0.0     0.0     0.0     1.5     1.7     4.4     5.3     5.4      3.     20.      4.      9.      7.     11.     10.      7.      8.     0.0     0.0     0.0     0.0     0.3     0.3     0.8     1.1     1.2     0.0     0.0     0.0     0.0     1.2     1.5     3.6     4.2     4.2     0.0     0.1     0.0     0.1     1.9     2.0     5.8     8.2     9.1
 1981 349    71    0.22    0.58    1.62    1.15    75.6   0.226   0.076   0.921   2.260     4.3    16.9    32.2    18.1      74    3.54    0.07   14.56   26.89     0.0     0.0     0.0     0.0     1.4     1.7     4.3     5.3     5.4      3.     18.      4.      8.      6.     10.     10.      7.      8.     0.0     0.0     0.0     0.0     0.3     0.3     0.8     1.1     1.2     0.0     0.0     0.0     0.0     1.2     1.4     3.6     4.2     4.2     0.0     0.1     0.0     0.1     1.8     2.0     5.7     8.1     9.0
 1981 350    72    0.22    0.60    1.65    1.16    75.7   0.230   0.076   0.935   2.287     4.3    16.9    32.0    18.1      69    3.53    0.07   14.52   26.80     0.0     0.0     0.0     0.0     1.4     1.7     4.3     5.3     5.4      3.     16.      3.      7.      6.     10.      9.      7.      8.     0.0     0.0     0.0     0.0     0.2     0.3     0.8     1.1     1.2     0.0     0.0     0.0     0.0     1.2     1.5     3.6     4.2     4.2     0.0     0.1     0.0     0.1     1.8     2.0     5.7     8.1     9.0
 1981 351    73    0.22    0.62    1.69    1.18    75.7   0.233   0.076   0.948   2.287     4.3    16.8    31.7    16.0      59    3.16    0.06   12.84    0.00     0.0     0.0     0.0     0.0     0.0     1.6     4.1     5.1     5.2      2.     13.      3.      6.      5.      9.      8.      6.      7.     0.0     0.0     0.0     0.0     0.0     0.2     0.7     1.0     1.2     0.0     0.0     0.0     0.0     0.0     1.4     3.4     4.0     4.0     0.0     0.0     0.0     0.0     0.0     0.0     0.0     0.0     0.0
 1981 352    74    0.23    0.63    1.72    1.19    75.8   0.236   0.076   0.959   2.287     4.2    16.7    31.5    13.3      48    2.70    0.05   10.59    0.00     0.0     0.0     0.0     0.0     0.0     0.0     3.8     4.7     4.9      2.     10.      2.      4.      4.      7.      7.      6.      7.     0.0     0.0     0.0     0.0     0.0     0.0     0.7     1.0     1.1     0.0     0.0     0.0     0.0     0.0     0.0     3.1     3.7     3.8     0.0     0.0     0.0     0.0     0.0     0.0     0.0     0.0     0.0
 1981 353    75    0.23    0.65    1.75    1.20    75.8   0.237   0.076   0.965   2.287     4.2    16.6    31.2     8.8      38    1.89    0.04    6.93    0.00     0.0     0.0     0.0     0.0     0.0     0.0     0.0     4.3     4.5      1.      7.      1.      3.      3.      5.      6.      5.      7.     0.0     0.0     0.0     0.0     0.0     0.0     0.0     0.9     1.0     0.0     0.0     0.0     0.0     0.0     0.0     0.0     3.4     3.5     0.0     0.0     0.0     0.0     0.0     0.0     0.0     0.0     0.0
 1981 354    76    0.24    0.67    1.78    1.21    75.9   0.238   0.076   0.969   2.287     4.1    16.5    30.9     4.3      31    0.95    0.03    3.32    0.00     0.0     0.0     0.0     0.0     0.0     0.0     0.0     0.0     4.3      1.      5.      1.      2.      2.      4.      4.      4.      6.     0.0     0.0     0.0     0.0     0.0     0.0     0.0     0.0     1.0     0.0     0.0     0.0     0.0     0.0     0.0     0.0     0.0     3.3     0.0     0.0     0.0     0.0     0.0     0.0     0.0     0.0     0.0
 1981 355    77    0.24    0.68    1.81    1.21    75.9   0.239   0.076   0.972   2.294     4.1    16.1    30.1     4.2      27    0.93    0.03    3.25    7.14     0.0     0.0     0.0     0.0     0.0     0.0     0.0     0.0     4.2      1.      5.      1.      2.      2.      4.      4.      4.      6.     0.0     0.0     0.0     0.0     0.0     0.0     0.0     0.0     0.9     0.0     0.0     0.0     0.0     0.0     0.0     0.0     0.0     3.2     0.0     0.0     0.0     0.0     0.0     0.0     0.0     0.0     7.0
 1981 356    78    0.25    0.70    1.84    1.22    75.9   0.240   0.076   0.975   2.301     3.8    15.0    28.0     4.3      27    0.95    0.03    3.32    7.30     0.0     0.0     0.0     0.0     0.0     0.0     0.0     0.0     4.3      0.      5.      1.      2.      2.      4.      4.      4.      5.     0.0     0.0     0.0     0.0     0.0     0.0     0.0     0.0     1.0     0.0     0.0     0.0     0.0     0.0     0.0     0.0     0.0     3.3     0.0     0.0     0.0     0.0     0.0     0.0     0.0     0.0     7.1
 1981 357    79    0.25    0.71    1.87    1.22    75.9   0.241   0.076   0.979   2.309     4.0    16.1    29.8     4.5      30    1.01    0.03    3.51    7.73     0.0     0.0     0.0     0.0     0.0     0.0     0.0     0.0     4.5      1.      6.      1.      3.      3.      4.      4.      4.      4.     0.0     0.0     0.0     0.0     0.0     0.0     0.0     0.0     1.0     0.0     0.0     0.0     0.0     0.0     0.0     0.0     0.0     3.5     0.0     0.0     0.0     0.0     0.0     0.0     0.0     0.0     7.5
 1981 358    80    0.25    0.73    1.90    1.22    76.0   0.242   0.076   0.983   2.317     4.0    15.8    29.2     4.7      33    1.06    0.03    3.69    8.13     0.0     0.0     0.0     0.0     0.0     0.0     0.0     0.0     4.7      1.      7.      2.      3.      3.      4.      4.      4.      4.     0.0     0.0     0.0     0.0     0.0     0.0     0.0     0.0     1.1     0.0     0.0     0.0     0.0     0.0     0.0     0.0     0.0     3.7     0.0     0.0     0.0     0.0     0.0     0.0     0.0     0.0     7.9
 1981 359    81    0.26    0.75    1.93    1.23    76.0   0.243   0.076   0.986   2.326     3.9    15.7    28.7     5.0      36    1.11    0.04    3.86    8.52     0.0     0.0     0.0     0.0     0.0     0.0     0.0     0.0     5.0      2.      8.      2.      3.      3.      5.      4.      5.      4.     0.0     0.0     0.0     0.0     0.0     0.0     0.0     0.0     1.1     0.0     0.0     0.0     0.0     0.0     0.0     0.0     0.0     3.9     0.0     0.1     0.0     0.0     0.0     0.0     0.0     0.0     8.3
 1981 360    82    0.26    0.76    1.95    1.23    76.1   0.245   0.076   0.990   2.335     3.9    15.4    28.0     5.1      38    1.13    0.04    3.95    8.73     0.0     0.0     0.0     0.0     0.0     0.0     0.0     0.0     5.1      2.      9.      2.      3.      4.      4.      5.      5.      4.     0.0     0.0     0.0     0.0     0.0     0.0     0.0     0.0     1.1     0.0     0.0     0.0     0.0     0.0     0.0     0.0     0.0     4.0     0.0     0.1     0.0     0.0     0.0     0.0     0.0     0.0     8.5
 1981 361    83    0.26    0.78    1.98    1.24    76.1   0.247   0.076   0.998   2.350     3.8    15.0    27.0     9.8      35    2.11    0.04    7.73   15.98     0.0     0.0     0.0     0.0     0.0     0.0     0.0     4.8     5.0      1.      8.      1.      3.      3.      4.      5.      6.      4.     0.0     0.0     0.0     0.0     0.0     0.0     0.0     1.0     1.1     0.0     0.0     0.0     0.0     0.0     0.0     0.0     3.9     3.9     0.0     0.0     0.0     0.0     0.0     0.0     0.0     7.5     8.3
 1981 362    84    0.27    0.79    2.01    1.26    76.1   0.249   0.076   1.009   2.350     3.6    14.4    25.8    13.4      31    2.73    0.03   10.69    0.00     0.0     0.0     0.0     0.0     0.0     0.0     3.8     4.7     4.9      1.      6.      1.      2.      3.      4.      5.      5.      4.     0.0     0.0     0.0     0.0     0.0     0.0     0.7     1.0     1.1     0.0     0.0     0.0     0.0     0.0     0.0     3.2     3.7     3.8     0.0     0.0     0.0     0.0     0.0     0.0     0.0     0.0     0.0
 1981 363    85    0.27    0.81    2.03    1.27    76.2   0.252   0.076   1.019   2.371     3.5    13.9    24.7    13.2      30    2.68    0.03   10.49   20.19     0.0     0.0     0.0     0.0     0.0     0.0     3.8     4.6     4.8      1.      6.      1.      2.      3.      3.      5.      5.      4.     0.0     0.0     0.0     0.0     0.0     0.0     0.7     1.0     1.1     0.0     0.0     0.0     0.0     0.0     0.0     3.1     3.7     3.7     0.0     0.0     0.0     0.0     0.0     0.0     5.0     7.1     8.0
 1981 364    86    0.28    0.82    2.05    1.28    76.2   0.255   0.076   1.030   2.390     3.4    13.5    23.7    12.9      28    2.63    0.03   10.29   19.79     0.0     0.0     0.0     0.0     0.0     0.0     3.7     4.5     4.7      1.      5.      1.      2.      4.      3.      4.      4.      4.     0.0     0.0     0.0     0.0     0.0     0.0     0.7     0.9     1.1     0.0     0.0     0.0     0.0     0.0     0.0     3.0     3.6     3.7     0.0     0.0     0.0     0.0     0.0     0.0     4.8     7.0     7.9
 1981 365    87    0.28    0.83    2.08    1.30    76.2   0.257   0.076   1.040   2.410     3.3    13.1    22.7    12.9      25    2.62    0.02   10.25   19.69     0.0     0.0     0.0     0.0     0.0     0.0     3.7     4.5     4.7      1.      5.      1.      2.      4.      2.      3.      4.      3.     0.0     0.0     0.0     0.0     0.0     0.0     0.6     0.9     1.0     0.0     0.0     0.0     0.0     0.0     0.0     3.0     3.6     3.6     0.0     0.0     0.0     0.0     0.0     0.0     4.8     6.9     7.8
 1982 001    88    0.28    0.84    2.10    1.31    76.2   0.260   0.076   1.050   2.430     3.2    12.7    21.7    12.9      22    2.63    0.02   10.30   19.77     0.0     0.0     0.0     0.0     0.0     0.0     3.7     4.5     4.7      1.      5.      1.      2.      4.      2.      2.      3.      3.     0.0     0.0     0.0     0.0     0.0     0.0     0.7     0.9     1.1     0.0     0.0     0.0     0.0     0.0     0.0     3.0     3.6     3.7     0.0     0.0     0.0     0.0     0.0     0.0     4.8     7.0     7.8
 1982 002    89    0.29    0.86    2.12    1.32    76.2   0.263   0.076   1.060   2.450     3.1    12.0    20.3    12.9      20    2.62    0.02   10.27   20.08     0.0     0.0     0.0     0.0     0.0     0.0     3.7     4.5     4.7      1.      4.      1.      1.      3.      2.      2.      2.      3.     0.0     0.0     0.0     0.0     0.0     0.0     0.6     0.9     1.1     0.0     0.0     0.0     0.0     0.0     0.0     3.0     3.6     3.7     0.0     0.1     0.0     0.0     0.1     0.1     4.9     7.0     7.9
 1982 003    90    0.29    0.87    2.14    1.34    76.3   0.265   0.076   1.071   2.450     2.9    11.1    18.6    13.2      19    2.68    0.02   10.49    0.00     0.0     0.0     0.0     0.0     0.0     0.0     3.8     4.6     4.8      1.      4.      1.      1.      3.      2.      1.      2.      3.     0.0     0.0     0.0     0.0     0.0     0.0     0.7     1.0     1.1     0.0     0.0     0.0     0.0     0.0     0.0     3.1     3.7     3.7     0.0     0.0     0.0     0.0     0.0     0.0     0.0     0.0     0.0
 1982 004    91    0.29    0.88    2.16    1.35    76.3   0.268   0.076   1.081   2.470     2.8    10.8    17.7    13.0      19    2.64    0.02   10.33   19.99     0.0     0.0     0.0     0.0     0.0     0.0     3.7     4.6     4.7      1.      4.      1.      1.      3.      2.      1.      3.      3.     0.0     0.0     0.0     0.0     0.0     0.0     0.7     0.9     1.1     0.0     0.0     0.0     0.0     0.0     0.0     3.0     3.6     3.7     0.0     0.1     0.0     0.0     0.1     0.0     4.9     7.0     7.9
 1982 005    92    0.29    0.89    2.17    1.36    76.3   0.270   0.076   1.088   2.484     2.4     9.3    15.3     8.9      15    1.91    0.01    7.00   14.46     0.0     0.0     0.0     0.0     0.0     0.0     0.0     4.4     4.5      0.      3.      1.      1.      2.      1.      1.      2.      3.     0.0     0.0     0.0     0.0     0.0     0.0     0.0     0.9     1.0     0.0     0.0     0.0     0.0     0.0     0.0     0.0     3.5     3.5     0.0     0.0     0.0     0.0     0.0     0.0     0.0     6.7     7.6
 1982 006    93    0.30    0.90    2.19    1.37    76.3   0.272   0.076   1.095   2.499     2.7    10.3    16.6     8.8      13    1.88    0.01    6.87   14.14     0.0     0.0     0.0     0.0     0.0     0.0     0.0     4.3     4.5      1.      3.      1.      1.      2.      1.      1.      1.      2.     0.0     0.0     0.0     0.0     0.0     0.0     0.0     0.9     1.0     0.0     0.0     0.0     0.0     0.0     0.0     0.0     3.4     3.5     0.0     0.0     0.0     0.0     0.0     0.0     0.0     6.6     7.5
 1982 007    94    0.30    0.91    2.20    1.38    76.3   0.274   0.076   1.102   2.512     2.6     9.9    15.9     8.5      11    1.83    0.01    6.71   13.76     0.0     0.0     0.0     0.0     0.0     0.0     0.0     4.2     4.4      0.      3.      0.      1.      2.      1.      1.      1.      2.     0.0     0.0     0.0     0.0     0.0     0.0     0.0     0.9     1.0     0.0     0.0     0.0     0.0     0.0     0.0     0.0     3.3     3.4     0.0     0.0     0.0     0.0     0.0     0.0     0.0     6.4     7.3
 1982 008    95    0.30    0.92    2.22    1.38    76.3   0.274   0.076   1.105   2.519     2.5     9.6    15.3     4.1       8    0.92    0.01    3.21    6.93     0.0     0.0     0.0     0.0     0.0     0.0     0.0     0.0     4.1      0.      2.      0.      1.      1.      1.      1.      0.      1.     0.0     0.0     0.0     0.0     0.0     0.0     0.0     0.0     0.9     0.0     0.0     0.0     0.0     0.0     0.0     0.0     0.0     3.2     0.0     0.0     0.0     0.0     0.0     0.0     0.0     0.0     6.9
 1982 009    96    0.30    0.93    2.23    1.38    76.3   0.275   0.076   1.108   2.526     2.5     9.4    14.8     4.2       7    0.93    0.01    3.24    6.98     0.0     0.0     0.0     0.0     0.0     0.0     0.0     0.0     4.2      0.      2.      0.      1.      1.      1.      1.      0.      1.     0.0     0.0     0.0     0.0     0.0     0.0     0.0     0.0     0.9     0.0     0.0     0.0     0.0     0.0     0.0     0.0     0.0     3.2     0.0     0.0     0.0     0.0     0.0     0.0     0.0     0.0     6.9
 1982 010    97    0.31    0.94    2.25    1.39    76.3   0.276   0.076   1.111   2.530     2.4     9.2    14.4     4.1       6    0.92    0.01    3.21    3.76     0.0     0.0     0.0     0.0     0.0     0.0     0.0     0.0     4.1      0.      2.      0.      1.      1.      1.      0.      0.      0.     0.0     0.0     0.0     0.0     0.0     0.0     0.0     0.0     0.9     0.0     0.0     0.0     0.0     0.0     0.0     0.0     0.0     3.2     0.0     0.0     0.0     0.0     0.0     0.0     0.0     0.0     3.7
 1982 011    98    0.31    0.95    2.26    1.39    76.3   0.276   0.076   1.111   2.530     2.4     9.0    14.0     0.0       4    0.00    0.00    0.00    0.03     0.0     0.0     0.0     0.0     0.0     0.0     0.0     0.0     0.0      0.      1.      0.      0.      1.      1.      0.      0.      0.     0.0     0.0     0.0     0.0     0.0     0.0     0.0     0.0     0.0     0.0     0.0     0.0     0.0     0.0     0.0     0.0     0.0     0.0     0.0     0.0     0.0     0.0     0.0     0.0     0.0     0.0     0.0
 1982 012    99    0.31    0.95    2.28    1.39    76.4   0.276   0.076   1.111   2.530     2.3     8.9    13.7     0.0       4    0.00    0.00    0.00    0.03     0.0     0.0     0.0     0.0     0.0     0.0     0.0     0.0     0.0      0.      1.      0.      0.      1.      1.      0.      0.      0.     0.0     0.0     0.0     0.0     0.0     0.0     0.0     0.0     0.0     0.0     0.0     0.0     0.0     0.0     0.0     0.0     0.0     0.0     0.0     0.0     0.0     0.0     0.0     0.0     0.0     0.0     0.0
 1982 013   100    0.31    0.96    2.29    1.39    76.4   0.276   0.076   1.111   2.530     2.3     8.7    13.5     0.0       4    0.00    0.00    0.00    0.00     0.0     0.0     0.0     0.0     0.0     0.0     0.0     0.0     0.0      0.      1.      0.      0.      1.      1.      0.      0.      0.     0.0     0.0     0.0     0.0     0.0     0.0     0.0     0.0     0.0     0.0     0.0     0.0     0.0     0.0     0.0     0.0     0.0     0.0     0.0     0.0     0.0     0.0     0.0     0.0     0.0     0.0     0.0
 1982 014   101    0.32    0.97    2.30    1.39    76.4   0.276   0.076   1.111   2.530     2.3     8.6    13.3     0.0       3    0.00    0.00    0.00    0.02     0.0     0.0     0.0     0.0     0.0     0.0     0.0     0.0     0.0      0.      1.      0.      0.      1.      0.      0.      0.      0.     0.0     0.0     0.0     0.0     0.0     0.0     0.0     0.0     0.0     0.0     0.0     0.0     0.0     0.0     0.0     0.0     0.0     0.0     0.0     0.0     0.0     0.0     0.0     0.0     0.0     0.0     0.0
 1982 015   102    0.32    0.98    2.32    1.39    76.4   0.276   0.076   1.111   2.530     2.2     8.4    13.1     0.0       3    0.00    0.00    0.00    0.02     0.0     0.0     0.0     0.0     0.0     0.0     0.0     0.0     0.0      0.      1.      0.      0.      1.      0.      0.      0.      0.     0.0     0.0     0.0     0.0     0.0     0.0     0.0     0.0     0.0     0.0     0.0     0.0     0.0     0.0     0.0     0.0     0.0     0.0     0.0     0.0     0.0     0.0     0.0     0.0     0.0     0.0     0.0
 1982 016   103    0.32    0.99    2.33    1.39    76.4   0.276   0.076   1.111   2.530     2.2     8.3    12.9     0.0       4    0.00    0.00    0.00    0.03     0.0     0.0     0.0     0.0     0.0     0.0     0.0     0.0     0.0      0.      1.      0.      0.      1.      1.      0.      0.      0.     0.0     0.0     0.0     0.0     0.0     0.0     0.0     0.0     0.0     0.0     0.0     0.0     0.0     0.0     0.0     0.0     0.0     0.0     0.0     0.0     0.0     0.0     0.0     0.0     0.0     0.0     0.0
 1982 017   104    0.32    1.00    2.34    1.39    76.4   0.276   0.076   1.111   2.530     2.2     8.1    12.7     0.0       4    0.00    0.00    0.00    0.03     0.0     0.0     0.0     0.0     0.0     0.0     0.0     0.0     0.0      0.      1.      0.      0.      1.      1.      0.      0.      0.     0.0     0.0     0.0     0.0     0.0     0.0     0.0     0.0     0.0     0.0     0.0     0.0     0.0     0.0     0.0     0.0     0.0     0.0     0.0     0.0     0.0     0.0     0.0     0.0     0.0     0.0     0.0
 1982 018   105    0.32    1.00    2.35    1.39    76.4   0.276   0.076   1.111   2.530     2.1     8.0    12.5     0.0       4    0.00    0.00    0.00    0.03     0.0     0.0     0.0     0.0     0.0     0.0     0.0     0.0     0.0      0.      1.      0.      0.      1.      0.      0.      0.      0.     0.0     0.0     0.0     0.0     0.0     0.0     0.0     0.0     0.0     0.0     0.0     0.0     0.0     0.0     0.0     0.0     0.0     0.0     0.0     0.0     0.0     0.0     0.0     0.0     0.0     0.0     0.0
 1982 019   106    0.33    1.01    2.37    1.39    76.4   0.276   0.076   1.111   2.530     2.1     7.8    12.3     0.0       5    0.00    0.00    0.00    0.03     0.0     0.0     0.0     0.0     0.0     0.0     0.0     0.0     0.0      0.      2.      0.      0.      1.      1.      0.      0.      0.     0.0     0.0     0.0     0.0     0.0     0.0     0.0     0.0     0.0     0.0     0.0     0.0     0.0     0.0     0.0     0.0     0.0     0.0     0.0     0.0     0.0     0.0     0.0     0.0     0.0     0.0     0.0
 1982 020   107    0.33    1.02    2.38    1.39    76.4   0.276   0.076   1.111   2.530     2.0     7.6    12.1     0.0       5    0.00    0.00    0.00    0.03     0.0     0.0     0.0     0.0     0.0     0.0     0.0     0.0     0.0      0.      2.      0.      0.      1.      1.      0.      0.      0.     0.0     0.0     0.0     0.0     0.0     0.0     0.0     0.0     0.0     0.0     0.0     0.0     0.0     0.0     0.0     0.0     0.0     0.0     0.0     0.0     0.0     0.0     0.0     0.0     0.0     0.0     0.0
 1982 021   108    0.33    1.03    2.39    1.39    76.4   0.276   0.076   1.111   2.530     1.9     7.3    11.6     0.0       5    0.00    0.00    0.00    0.03     0.0     0.0     0.0     0.0     0.0     0.0     0.0     0.0     0.0      0.      2.      0.      0.      1.      0.      0.      0.      0.     0.0     0.0     0.0     0.0     0.0     0.0     0.0     0.0     0.0     0.0     0.0     0.0     0.0     0.0     0.0     0.0     0.0     0.0     0.0     0.0     0.0     0.0     0.0     0.0     0.0     0.0     0.0
 1982 022   109    0.33    1.03    2.40    1.39    76.4   0.276   0.076   1.111   2.530     1.9     7.0    11.2     0.0       5    0.00    0.01    0.00    0.04     0.0     0.0     0.0     0.0     0.0     0.0     0.0     0.0     0.0      0.      2.      0.      0.      1.      1.      0.      0.      1.     0.0     0.0     0.0     0.0     0.0     0.0     0.0     0.0     0.0     0.0     0.0     0.0     0.0     0.0     0.0     0.0     0.0     0.0     0.0     0.0     0.0     0.0     0.0     0.0     0.0     0.0     0.0
 1982 023   110    0.33    1.04    2.41    1.39    76.4   0.277   0.076   1.115   2.530     1.8     6.6    10.7     4.4       6    0.97    0.01    3.39    0.00     0.0     0.0     0.0     0.0     0.0     0.0     0.0     0.0     4.4      0.      2.      0.      0.      1.      1.      0.      0.      1.     0.0     0.0     0.0     0.0     0.0     0.0     0.0     0.0     1.0     0.0     0.0     0.0     0.0     0.0     0.0     0.0     0.0     3.4     0.0     0.0     0.0     0.0     0.0     0.0     0.0     0.0     0.0
 1982 024   111    0.34    1.05    2.42    1.40    76.4   0.278   0.076   1.118   2.530     1.7     6.3    10.2     4.1       5    0.92    0.01    3.22    0.00     0.0     0.0     0.0     0.0     0.0     0.0     0.0     0.0     4.1      0.      1.      0.      0.      1.      0.      0.      0.      1.     0.0     0.0     0.0     0.0     0.0     0.0     0.0     0.0     0.9     0.0     0.0     0.0     0.0     0.0     0.0     0.0     0.0     3.2     0.0     0.0     0.0     0.0     0.0     0.0     0.0     0.0     0.0
 1982 025   112    0.34    1.05    2.43    1.40    76.4   0.279   0.076   1.121   2.530     1.6     6.0     9.7     4.0       5    0.89    0.00    3.12    0.00     0.0     0.0     0.0     0.0     0.0     0.0     0.0     0.0     4.0      0.      1.      0.      0.      1.      0.      0.      0.      1.     0.0     0.0     0.0     0.0     0.0     0.0     0.0     0.0     0.9     0.0     0.0     0.0     0.0     0.0     0.0     0.0     0.0     3.1     0.0     0.0     0.0     0.0     0.0     0.0     0.0     0.0     0.0
 1982 026   113    0.34    1.06    2.44    1.40    76.4   0.280   0.076   1.124   2.537     1.5     5.5     9.0     4.0       4    0.90    0.00    3.13    6.72     0.0     0.0     0.0     0.0     0.0     0.0     0.0     0.0     4.0      0.      1.      0.      0.      1.      0.      0.      0.      1.     0.0     0.0     0.0     0.0     0.0     0.0     0.0     0.0     0.9     0.0     0.0     0.0     0.0     0.0     0.0     0.0     0.0     3.1     0.0     0.0     0.0     0.0     0.0     0.0     0.0     0.0     6.7
 1982 027   114    0.34    1.06    2.45    1.41    76.4   0.281   0.076   1.127   2.544     1.4     5.1     8.4     4.1       3    0.91    0.00    3.17    6.80     0.0     0.0     0.0     0.0     0.0     0.0     0.0     0.0     4.1      0.      0.      0.      0.      1.      0.      0.      0.      1.     0.0     0.0     0.0     0.0     0.0     0.0     0.0     0.0     0.9     0.0     0.0     0.0     0.0     0.0     0.0     0.0     0.0     3.2     0.0     0.0     0.0     0.0     0.0     0.0     0.0     0.0     6.8
 1982 028   115    0.34    1.07    2.46    1.41    76.4   0.282   0.076   1.131   2.547     1.3     4.8     8.0     4.2       3    0.94    0.00    3.29    3.43     0.0     0.0     0.0     0.0     0.0     0.0     0.0     0.0     4.2      0.      1.      0.      0.      1.      0.      0.      0.      0.     0.0     0.0     0.0     0.0     0.0     0.0     0.0     0.0     0.9     0.0     0.0     0.0     0.0     0.0     0.0     0.0     0.0     3.3     0.0     0.0     0.0     0.0     0.0     0.0     0.0     0.0     3.4
 1982 029   116    0.34    1.07    2.46    1.42    76.4   0.283   0.076   1.134   2.547     1.2     4.6     7.6     4.4       4    0.98    0.00    3.43    0.03     0.0     0.0     0.0     0.0     0.0     0.0     0.0     0.0     4.4      0.      2.      0.      0.      1.      0.      0.      0.      0.     0.0     0.0     0.0     0.0     0.0     0.0     0.0     0.0     1.0     0.0     0.0     0.0     0.0     0.0     0.0     0.0     0.0     3.4     0.0     0.0     0.0     0.0     0.0     0.0     0.0     0.0     0.0
 1982 030   117    0.34    1.08    2.47    1.42    76.4   0.284   0.076   1.138   2.555     1.1     4.2     7.0     4.7       6    1.04    0.01    3.62    7.78     0.0     0.0     0.0     0.0     0.0     0.0     0.0     0.0     4.7      0.      2.      0.      0.      1.      0.      0.      0.      1.     0.0     0.0     0.0     0.0     0.0     0.0     0.0     0.0     1.0     0.0     0.0     0.0     0.0     0.0     0.0     0.0     0.0     3.6     0.0     0.0     0.0     0.0     0.0     0.0     0.0     0.0     7.7
 1982 031   118    0.34    1.08    2.48    1.43    76.4   0.285   0.076   1.141   2.563     0.8     3.1     5.2     4.7       6    1.04    0.01    3.63    7.80     0.0     0.0     0.0     0.0     0.0     0.0     0.0     0.0     4.7      0.      2.      0.      0.      1.      0.      1.      1.      1.     0.0     0.0     0.0     0.0     0.0     0.0     0.0     0.0     1.0     0.0     0.0     0.0     0.0     0.0     0.0     0.0     0.0     3.6     0.0     0.0     0.0     0.0     0.0     0.0     0.0     0.0     7.8
 1982 032   119    0.35    1.08    2.48    1.44    76.4   0.287   0.076   1.148   2.577     1.0     3.6     5.9     8.8       5    1.90    0.01    6.95   14.17     0.0     0.0     0.0     0.0     0.0     0.0     0.0     4.4     4.5      0.      1.      0.      0.      1.      0.      1.      1.      1.     0.0     0.0     0.0     0.0     0.0     0.0     0.0     0.9     1.0     0.0     0.0     0.0     0.0     0.0     0.0     0.0     3.5     3.5     0.0     0.0     0.0     0.0     0.0     0.0     0.0     6.7     7.4
 1982 033   120    0.35    1.09    2.49    1.44    76.4   0.289   0.076   1.155   2.590     1.0     3.6     5.8     8.4       4    1.80    0.00    6.60   13.00     0.0     0.0     0.0     0.0     0.0     0.0     0.0     4.1     4.3      0.      1.      0.      0.      0.      0.      1.      1.      0.     0.0     0.0     0.0     0.0     0.0     0.0     0.0     0.9     0.9     0.0     0.0     0.0     0.0     0.0     0.0     0.0     3.3     3.3     0.0     0.0     0.0     0.0     0.0     0.0     0.0     6.4     6.6
 1982 034   121    0.35    1.09    2.49    1.45    76.4   0.290   0.076   1.158   2.590     0.9     3.3     5.3     4.2       3    0.93    0.00    3.24    0.00     0.0     0.0     0.0     0.0     0.0     0.0     0.0     0.0     4.2      0.      1.      0.      0.      0.      0.      1.      0.      0.     0.0     0.0     0.0     0.0     0.0     0.0     0.0     0.0     0.9     0.0     0.0     0.0     0.0     0.0     0.0     0.0     0.0     3.2     0.0     0.0     0.0     0.0     0.0     0.0     0.0     0.0     0.0
 1982 035   122    0.35    1.09    2.50    1.45    76.4   0.290   0.076   1.158   2.590     0.8     3.0     4.9     0.0       3    0.00    0.00    0.00    0.00     0.0     0.0     0.0     0.0     0.0     0.0     0.0     0.0     0.0      0.      1.      0.      0.      0.      0.      0.      0.      0.     0.0     0.0     0.0     0.0     0.0     0.0     0.0     0.0     0.0     0.0     0.0     0.0     0.0     0.0     0.0     0.0     0.0     0.0     0.0     0.0     0.0     0.0     0.0     0.0     0.0     0.0     0.0
 1982 036   123    0.35    1.10    2.50    1.45    76.5   0.290   0.076   1.158   2.590     0.8     2.8     4.5     0.0       2    0.00    0.00    0.00    0.00     0.0     0.0     0.0     0.0     0.0     0.0     0.0     0.0     0.0      0.      1.      0.      0.      0.      0.      0.      0.      0.     0.0     0.0     0.0     0.0     0.0     0.0     0.0     0.0     0.0     0.0     0.0     0.0     0.0     0.0     0.0     0.0     0.0     0.0     0.0     0.0     0.0     0.0     0.0     0.0     0.0     0.0     0.0
 1982 037   124    0.35    1.10    2.51    1.45    76.5   0.290   0.076   1.158   2.590     0.7     2.7     4.1     0.0       2    0.00    0.00    0.00    0.00     0.0     0.0     0.0     0.0     0.0     0.0     0.0     0.0     0.0      0.      0.      0.      0.      0.      0.      0.      0.      0.     0.0     0.0     0.0     0.0     0.0     0.0     0.0     0.0     0.0     0.0     0.0     0.0     0.0     0.0     0.0     0.0     0.0     0.0     0.0     0.0     0.0     0.0     0.0     0.0     0.0     0.0     0.0
 1982 038   125    0.35    1.10    2.51    1.45    76.5   0.290   0.076   1.158   2.590     0.7     2.5     3.9     0.0       1    0.00    0.00    0.00    0.00     0.0     0.0     0.0     0.0     0.0     0.0     0.0     0.0     0.0      0.      0.      0.      0.      0.      0.      0.      0.      0.     0.0     0.0     0.0     0.0     0.0     0.0     0.0     0.0     0.0     0.0     0.0     0.0     0.0     0.0     0.0     0.0     0.0     0.0     0.0     0.0     0.0     0.0     0.0     0.0     0.0     0.0     0.0
 1982 039   126    0.35    1.10    2.51    1.45    76.5   0.290   0.076   1.158   2.590     0.7     2.4     3.6     0.0       1    0.00    0.00    0.00    0.00     0.0     0.0     0.0     0.0     0.0     0.0     0.0     0.0     0.0      0.      0.      0.      0.      0.      0.      0.      0.      0.     0.0     0.0     0.0     0.0     0.0     0.0     0.0     0.0     0.0     0.0     0.0     0.0     0.0     0.0     0.0     0.0     0.0     0.0     0.0     0.0     0.0     0.0     0.0     0.0     0.0     0.0     0.0
 1982 040   127    0.35    1.11    2.52    1.45    76.5   0.290   0.076   1.158   2.590     0.7     2.4     3.4     0.0       1    0.00    0.00    0.00    0.00     0.0     0.0     0.0     0.0     0.0     0.0     0.0     0.0     0.0      0.      0.      0.      0.      0.      0.      0.      0.      0.     0.0     0.0     0.0     0.0     0.0     0.0     0.0     0.0     0.0     0.0     0.0     0.0     0.0     0.0     0.0     0.0     0.0     0.0     0.0     0.0     0.0     0.0     0.0     0.0     0.0     0.0     0.0
 1982 041   128    0.35    1.11    2.52    1.45    76.5   0.290   0.076   1.158   2.590     0.7     2.4     3.4     0.0       1    0.00    0.00    0.00    0.00     0.0     0.0     0.0     0.0     0.0     0.0     0.0     0.0     0.0      0.      0.      0.      0.      0.      0.      0.      0.      0.     0.0     0.0     0.0     0.0     0.0     0.0     0.0     0.0     0.0     0.0     0.0     0.0     0.0     0.0     0.0     0.0     0.0     0.0     0.0     0.0     0.0     0.0     0.0     0.0     0.0     0.0     0.0
 1982 042   129    0.35    1.11    2.52    1.45    76.5   0.290   0.076   1.158   2.590     0.7     2.3     3.3     0.0       1    0.00    0.00    0.00    0.00     0.0     0.0     0.0     0.0     0.0     0.0     0.0     0.0     0.0      0.      0.      0.      0.      0.      0.      0.      0.      0.     0.0     0.0     0.0     0.0     0.0     0.0     0.0     0.0     0.0     0.0     0.0     0.0     0.0     0.0     0.0     0.0     0.0     0.0     0.0     0.0     0.0     0.0     0.0     0.0     0.0     0.0     0.0
 1982 043   130    0.35    1.11    2.53    1.45    76.5   0.290   0.076   1.158   2.590     0.7     2.3     3.3     0.0       1    0.00    0.00    0.00    0.00     0.0     0.0     0.0     0.0     0.0     0.0     0.0     0.0     0.0      0.      0.      0.      0.      0.      0.      0.      0.      0.     0.0     0.0     0.0     0.0     0.0     0.0     0.0     0.0     0.0     0.0     0.0     0.0     0.0     0.0     0.0     0.0     0.0     0.0     0.0     0.0     0.0     0.0     0.0     0.0     0.0     0.0     0.0
 1982 044   131    0.35    1.12    2.53    1.45    76.5   0.290   0.076   1.158   2.590     0.5     1.9     2.7     0.0       1    0.00    0.00    0.00    0.00     0.0     0.0     0.0     0.0     0.0     0.0     0.0     0.0     0.0      0.      0.      0.      0.      0.      0.      0.      0.      0.     0.0     0.0     0.0     0.0     0.0     0.0     0.0     0.0     0.0     0.0     0.0     0.0     0.0     0.0     0.0     0.0     0.0     0.0     0.0     0.0     0.0     0.0     0.0     0.0     0.0     0.0     0.0
 1982 045   132    0.35    1.12    2.53    1.45    76.5   0.290   0.076   1.158   2.590     0.6     2.2     3.1     0.0       1    0.00    0.00    0.00    0.01     0.0     0.0     0.0     0.0     0.0     0.0     0.0     0.0     0.0      0.      0.      0.      0.      0.      0.      0.      0.      0.     0.0     0.0     0.0     0.0     0.0     0.0     0.0     0.0     0.0     0.0     0.0     0.0     0.0     0.0     0.0     0.0     0.0     0.0     0.0     0.0     0.0     0.0     0.0     0.0     0.0     0.0     0.0
 1982 046   133    0.36    1.12    2.54    1.45    76.5   0.290   0.076   1.158   2.590     0.6     2.2     3.0     0.0       1    0.00    0.00    0.00    0.01     0.0     0.0     0.0     0.0     0.0     0.0     0.0     0.0     0.0      0.      0.      0.      0.      0.      0.      0.      0.      0.     0.0     0.0     0.0     0.0     0.0     0.0     0.0     0.0     0.0     0.0     0.0     0.0     0.0     0.0     0.0     0.0     0.0     0.0     0.0     0.0     0.0     0.0     0.0     0.0     0.0     0.0     0.0
 1982 047   134    0.36    1.12    2.54    1.45    76.5   0.290   0.076   1.158   2.590     0.6     2.2     3.1     0.0       1    0.00    0.00    0.00    0.01     0.0     0.0     0.0     0.0     0.0     0.0     0.0     0.0     0.0      0.      0.      0.      0.      0.      0.      0.      0.      0.     0.0     0.0     0.0     0.0     0.0     0.0     0.0     0.0     0.0     0.0     0.0     0.0     0.0     0.0     0.0     0.0     0.0     0.0     0.0     0.0     0.0     0.0     0.0     0.0     0.0     0.0     0.0
 1982 048   135    0.36    1.12    2.54    1.45    76.5   0.290   0.076   1.158   2.590     0.6     2.3     3.1     0.0       2    0.00    0.00    0.00    0.02     0.0     0.0     0.0     0.0     0.0     0.0     0.0     0.0     0.0      0.      1.      0.      0.      0.      0.      0.      0.      0.     0.0     0.0     0.0     0.0     0.0     0.0     0.0     0.0     0.0     0.0     0.0     0.0     0.0     0.0     0.0     0.0     0.0     0.0     0.0     0.0     0.0     0.0     0.0     0.0     0.0     0.0     0.0
 1982 049   136    0.36    1.13    2.55    1.45    76.5   0.290   0.076   1.158   2.590     0.6     2.3     3.1     0.0       3    0.00    0.00    0.00    0.02     0.0     0.0     0.0     0.0     0.0     0.0     0.0     0.0     0.0      0.      1.      0.      0.      0.      0.      0.      0.      0.     0.0     0.0     0.0     0.0     0.0     0.0     0.0     0.0     0.0     0.0     0.0     0.0     0.0     0.0     0.0     0.0     0.0     0.0     0.0     0.0     0.0     0.0     0.0     0.0     0.0     0.0     0.0
 1982 050   137    0.36    1.13    2.55    1.45    76.5   0.290   0.076   1.158   2.590     0.6     2.2     3.1     0.0       2    0.00    0.00    0.00    0.02     0.0     0.0     0.0     0.0     0.0     0.0     0.0     0.0     0.0      0.      1.      0.      0.      0.      0.      0.      0.      1.     0.0     0.0     0.0     0.0     0.0     0.0     0.0     0.0     0.0     0.0     0.0     0.0     0.0     0.0     0.0     0.0     0.0     0.0     0.0     0.0     0.0     0.0     0.0     0.0     0.0     0.0     0.0
 1982 051   138    0.36    1.13    2.55    1.45    76.5   0.290   0.076   1.158   2.590     0.6     2.2     3.1     0.0       4    0.00    0.00    0.00    0.03     0.0     0.0     0.0     0.0     0.0     0.0     0.0     0.0     0.0      0.      1.      0.      0.      0.      0.      1.      1.      1.     0.0     0.0     0.0     0.0     0.0     0.0     0.0     0.0     0.0     0.0     0.0     0.0     0.0     0.0     0.0     0.0     0.0     0.0     0.0     0.0     0.0     0.0     0.0     0.0     0.0     0.0     0.0
 1982 052   139    0.36    1.13    2.55    1.45    76.5   0.290   0.076   1.161   2.596     0.6     2.3     3.1     4.0       6    0.83    0.01    3.20    6.27     0.0     0.0     0.0     0.0     0.0     0.0     0.0     0.0     4.0      0.      1.      0.      0.      0.      0.      1.      1.      2.     0.0     0.0     0.0     0.0     0.0     0.0     0.0     0.0     0.8     0.0     0.0     0.0     0.0     0.0     0.0     0.0     0.0     3.2     0.0     0.0     0.0     0.0     0.0     0.0     0.0     0.0     6.2
 1982 053   140    0.36    1.14    2.56    1.46    76.5   0.292   0.076   1.168   2.608     0.6     2.3     3.2     7.5      15    1.48    0.01    6.06   11.11     0.0     0.0     0.0     0.0     0.0     0.0     0.0     3.4     4.1      1.      6.      1.      0.      1.      1.      2.      2.      2.     0.0     0.0     0.0     0.0     0.0     0.0     0.0     0.6     0.9     0.0     0.0     0.0     0.0     0.0     0.0     0.0     2.8     3.3     0.0     0.0     0.0     0.0     0.0     0.0     0.0     4.7     6.4
 1982 054   141    0.36    1.14    2.56    1.47    76.5   0.294   0.077   1.176   2.622     0.6     2.2     3.1    10.5      30    1.93    0.03    8.58   14.63     0.0     0.0     0.0     0.0     0.0     0.0     2.7     3.6     4.3      3.     15.      2.      1.      1.      2.      2.      2.      2.     0.0     0.0     0.0     0.0     0.0     0.0     0.4     0.7     0.9     0.0     0.0     0.0     0.0     0.0     0.0     2.3     2.9     3.4     0.0     0.1     0.0     0.0     0.0     0.0     3.0     4.9     6.6
 1982 055   142    0.36    1.14    2.56    1.49    76.6   0.296   0.077   1.189   2.642     0.6     2.0     2.9    15.4      53    2.57    0.05   12.80   19.44     0.0     0.0     0.0     0.6     2.4     1.8     2.7     3.6     4.3      5.     29.      3.      2.      2.      3.      3.      2.      2.     0.0     0.0     0.0     0.1     0.3     0.2     0.4     0.7     0.9     0.0     0.0     0.0     0.5     2.0     1.6     2.3     2.9     3.4     0.0     0.2     0.0     0.4     2.4     1.8     3.1     4.9     6.6
 1982 056   143    0.36    1.14    2.57    1.50    76.6   0.299   0.077   1.201   2.661     0.6     2.0     2.8    14.8      68    2.48    0.07   12.30   18.90     0.0     0.0     0.0     0.4     2.3     1.8     2.6     3.5     4.2      7.     39.      4.      2.      2.      4.      4.      3.      3.     0.0     0.0     0.0     0.0     0.3     0.2     0.4     0.6     0.9     0.0     0.0     0.0     0.4     1.9     1.5     2.2     2.8     3.3     0.1     0.3     0.0     0.3     2.3     1.7     3.0     4.8     6.5
 1982 057   144    0.36    1.14    2.57    1.51    76.7   0.301   0.077   1.213   2.678     0.5     1.9     2.7    13.7      66    2.30    0.07   11.35   17.59     0.0     0.0     0.0     0.3     2.1     1.6     2.4     3.3     4.0      7.     38.      4.      2.      2.      4.      4.      3.      2.     0.0     0.0     0.0     0.0     0.3     0.2     0.4     0.6     0.8     0.0     0.0     0.0     0.3     1.8     1.4     2.1     2.7     3.1     0.0     0.3     0.0     0.2     2.1     1.6     2.8     4.5     6.1
 1982 058   145    0.36    1.15    2.57    1.52    76.8   0.303   0.077   1.220   2.691     0.5     1.9     2.7     9.1      53    1.68    0.05    7.45   12.90     0.0     0.0     0.0     0.0     0.0     0.0     2.3     3.1     3.8      5.     31.      3.      2.      2.      3.      3.      2.      2.     0.0     0.0     0.0     0.0     0.0     0.0     0.3     0.6     0.8     0.0     0.0     0.0     0.0     0.0     0.0     1.9     2.5     3.0     0.0     0.2     0.0     0.0     0.0     0.0     2.6     4.2     5.8
 1982 059   146    0.36    1.15    2.57    1.53    76.8   0.304   0.077   1.223   2.697     0.5     1.9     2.7     3.6      42    0.74    0.04    2.85    5.82     0.0     0.0     0.0     0.0     0.0     0.0     0.0     0.0     3.6      4.     23.      3.      3.      1.      3.      2.      2.      1.     0.0     0.0     0.0     0.0     0.0     0.0     0.0     0.0     0.7     0.0     0.0     0.0     0.0     0.0     0.0     0.0     0.0     2.8     0.0     0.2     0.0     0.0     0.0     0.0     0.0     0.0     5.5
 1982 060   147    0.36    1.15    2.58    1.53    76.8   0.304   0.077   1.226   2.702     0.5     1.9     2.8     3.5      36    0.72    0.04    2.78    5.64     0.0     0.0     0.0     0.0     0.0     0.0     0.0     0.0     3.5      3.     20.      2.      3.      1.      2.      2.      1.      1.     0.0     0.0     0.0     0.0     0.0     0.0     0.0     0.0     0.7     0.0     0.0     0.0     0.0     0.0     0.0     0.0     0.0     2.8     0.0     0.1     0.0     0.0     0.0     0.0     0.0     0.0     5.4
 1982 061   148    0.36    1.15    2.58    1.53    76.9   0.305   0.077   1.228   2.707     0.5     2.0     2.9     3.6      35    0.73    0.03    2.82    4.98     0.0     0.0     0.0     0.0     0.0     0.0     0.0     0.0     3.6      3.     20.      2.      3.      1.      2.      2.      1.      0.     0.0     0.0     0.0     0.0     0.0     0.0     0.0     0.0     0.7     0.0     0.0     0.0     0.0     0.0     0.0     0.0     0.0     2.8     0.0     0.1     0.0     0.0     0.0     0.0     0.0     0.0     4.7
 1982 062   149    0.36    1.15    2.58    1.54    76.9   0.306   0.077   1.231   2.708     0.5     2.1     3.1     3.7      37    0.76    0.04    2.93    0.25     0.0     0.0     0.0     0.0     0.0     0.0     0.0     0.0     3.7      3.     22.      2.      3.      1.      2.      2.      1.      0.     0.0     0.0     0.0     0.0     0.0     0.0     0.0     0.0     0.8     0.0     0.0     0.0     0.0     0.0     0.0     0.0     0.0     2.9     0.0     0.1     0.0     0.0     0.0     0.0     0.0     0.0     0.0
[...]
 1982 137   224    1.09    2.26    5.65    3.73   177.6   1.027   0.178   2.700   6.131     6.4    23.1    24.2    23.1     408    3.19    0.41   19.87   26.41     0.0     0.0     0.0     1.7     3.1     3.4     4.6     5.2     5.2     88.    190.     28.     28.     23.     25.     14.      7.      5.     0.1     0.2     0.0     0.1     0.2     0.4     0.7     0.9     1.0     0.0     0.0     0.0     1.6     2.9     3.0     3.9     4.2     4.2     0.5     1.2     0.2     0.6     1.6     2.9     5.1     6.8     7.5
 1982 138   225    1.10    2.28    5.68    3.75   178.1   1.030   0.179   2.718   6.157     6.4    23.4    24.2    21.1     458    3.03    0.46   18.03   25.47     0.0     0.0     0.0     1.2     2.2     2.8     4.3     5.2     5.5    105.    180.     65.     31.     26.     26.     15.      7.      4.     0.1     0.2     0.1     0.1     0.2     0.3     0.6     0.9     1.1     0.0     0.0     0.0     1.1     2.0     2.5     3.6     4.3     4.4     0.7     1.1     0.4     0.5     1.2     2.4     4.6     6.8     7.9
 1982 139   226    1.11    2.30    5.70    3.76   179.0   1.033   0.179   2.731   6.181     6.9    25.1    26.1    15.1     894    2.42    0.89   12.70   24.00     0.0     0.0     0.0     0.2     0.4     1.6     3.2     4.5     5.2    260.    458.     60.     35.     29.     27.     15.      7.      4.     0.3     0.5     0.1     0.0     0.1     0.2     0.5     0.8     1.0     0.0     0.0     0.0     0.2     0.4     1.5     2.7     3.8     4.2     1.7     3.0     0.4     0.3     0.4     1.4     3.4     5.9     7.5
 1982 140   227    1.11    2.33    5.73    3.77   179.9   1.034   0.180   2.737   6.196     7.0    25.2    26.4     7.8     956    1.21    0.96    6.59   15.43     0.0     0.0     0.0     0.0     0.0     1.0     2.9     1.8     2.1    262.    450.     60.     69.     57.     29.     16.      8.      5.     0.3     0.4     0.1     0.1     0.1     0.1     0.4     0.3     0.4     0.0     0.0     0.0     0.0     0.0     0.9     2.5     1.5     1.7     1.7     3.0     0.4     0.5     0.4     1.0     3.1     2.4     3.0
 1982 141   228    1.12    2.35    5.76    3.78   180.8   1.035   0.181   2.743   6.211     6.9    25.0    26.6     7.3     907    1.15    0.91    6.12   14.69     0.0     0.0     0.0     0.0     0.0     0.7     2.7     1.8     2.1    246.    422.     59.     64.     54.     31.     17.      9.      5.     0.2     0.4     0.1     0.1     0.1     0.1     0.4     0.3     0.4     0.0     0.0     0.0     0.0     0.0     0.6     2.3     1.5     1.7     1.6     2.8     0.4     0.5     0.4     0.7     3.0     2.4     3.0
 1982 142   229    1.13    2.38    5.78    3.79   181.2   1.038   0.182   2.757   6.231     6.3    22.9    24.4    15.9     380    2.35    0.38   13.57   20.00     0.0     0.0     0.0     0.0     0.0     3.9     4.5     4.0     3.5    100.    156.     21.     23.     20.     29.     17.      9.      6.     0.1     0.2     0.0     0.0     0.0     0.4     0.6     0.7     0.7     0.0     0.0     0.0     0.0     0.0     3.5     3.9     3.3     2.8     0.6     0.9     0.1     0.2     0.1     3.1     4.8     5.2     5.0
 1982 143   230    1.13    2.40    5.81    3.81   182.0   1.041   0.182   2.773   6.258     6.5    23.8    25.8    19.6     784    2.95    0.78   16.61   27.21     0.0     0.0     0.0     0.0     0.0     3.9     5.2     5.4     5.0    241.    401.     29.     29.     24.     28.     17.      9.      6.     0.2     0.4     0.0     0.0     0.0     0.4     0.7     0.9     1.0     0.0     0.0     0.0     0.0     0.0     3.5     4.5     4.5     4.1     1.6     2.6     0.2     0.2     0.2     3.0     5.4     7.0     7.1
 1982 144   231    1.14    2.42    5.83    3.82   182.8   1.041   0.183   2.779   6.270     6.4    23.3    25.7     6.5     770    0.97    0.77    5.52   12.43     0.0     0.0     0.0     0.0     0.0     1.0     1.6     2.0     1.9    218.    361.     64.     35.     30.     30.     18.      9.      6.     0.2     0.4     0.1     0.0     0.0     0.1     0.2     0.3     0.4     0.0     0.0     0.0     0.0     0.0     0.9     1.4     1.7     1.6     1.4     2.4     0.4     0.3     0.2     0.9     1.7     2.5     2.7
 1982 145   232    1.15    2.45    5.86    3.83   183.5   1.042   0.184   2.784   6.282     6.2    22.7    25.6     6.0     721    0.91    0.72    5.06   11.68     0.0     0.0     0.0     0.0     0.0     0.7     1.4     2.0     1.9    186.    311.     55.     59.     51.     28.     17.      9.      6.     0.2     0.3     0.1     0.1     0.1     0.1     0.2     0.3     0.3     0.0     0.0     0.0     0.0     0.0     0.7     1.2     1.6     1.5     1.2     2.0     0.3     0.4     0.4     0.7     1.5     2.4     2.6
 1982 146   233    1.15    2.47    5.88    3.84   183.8   1.044   0.184   2.792   6.294     5.2    19.2    21.8     9.0     303    1.30    0.30    7.67   11.59     0.0     0.0     0.0     0.0     0.0     1.8     2.2     2.5     2.4     68.    112.     18.     22.     22.     27.     17.      9.      6.     0.1     0.1     0.0     0.0     0.0     0.2     0.3     0.4     0.5     0.0     0.0     0.0     0.0     0.0     1.7     1.9     2.1     2.0     0.4     0.6     0.1     0.2     0.2     1.4     2.3     3.1     3.4
 1982 147   234    1.16    2.49    5.91    3.90   184.2   1.053   0.185   2.849   6.364     5.6    20.9    24.1    66.8     428    9.37    0.43   57.43   70.10     0.0     0.0     0.0     0.0     0.0    12.0    20.5    19.7    14.6    192.    132.     22.     22.     19.     18.     11.      7.      5.     0.2     0.1     0.0     0.0     0.0     0.9     2.5     3.3     2.8     0.0     0.0     0.0     0.0     0.0    11.1    18.0    16.4    11.8     1.3     0.8     0.1     0.1     0.1     6.4    17.3    23.4    20.5
 1982 148   235    1.16    2.51    5.93    3.96   184.7   1.062   0.185   2.900   6.429     5.3    20.0    23.6    59.2     472    8.61    0.47   50.60   65.19     0.0     0.0     0.0     0.0     0.0     6.3    13.8    19.2    19.8    192.    159.     29.     26.     23.     24.     12.      5.      3.     0.2     0.2     0.0     0.0     0.0     0.4     1.5     3.0     3.7     0.0     0.0     0.0     0.0     0.0     5.9    12.4    16.2    16.1     1.3     1.0     0.2     0.2     0.2     3.2    10.8    21.4    27.0
 1982 149   236    1.17    2.53    5.95    3.98   185.5   1.064   0.186   2.918   6.454     5.2    19.6    23.6    20.8     805    2.69    0.80   18.07   25.27     0.0     0.0     0.0     0.0     0.0     2.1     4.8     6.8     7.1    201.    414.     71.     36.     31.     30.     15.      5.      2.     0.2     0.4     0.1     0.0     0.0     0.2     0.5     0.9     1.2     0.0     0.0     0.0     0.0     0.0     2.0     4.3     5.8     5.9     1.3     2.7     0.4     0.3     0.2     1.2     3.5     6.9     8.8
 1982 150   237    1.17    2.55    5.98    4.04   186.0   1.070   0.186   2.969   6.500     4.9    18.7    23.0    57.0     484    5.95    0.48   51.07   46.16     0.0     0.0     0.0     4.1     4.8     9.8    12.4    13.2    12.8    196.    169.     26.     28.     24.     21.     13.      5.      2.     0.2     0.2     0.0     0.2     0.3     0.6     1.1     1.8     2.1     0.0     0.0     0.0     3.9     4.6     9.2    11.2    11.5    10.6     1.3     1.0     0.1     1.3     1.7     4.1     8.1    12.8    15.6
 1982 151   238    1.18    2.56    6.00    4.09   186.7   1.076   0.187   3.011   6.544     4.7    18.3    23.0    47.4     706    5.35    0.71   42.08   43.49     0.0     0.0     0.0     2.0     2.9     4.8     9.2    13.2    15.3    168.    350.     74.     36.     30.     28.     14.      4.      1.     0.2     0.3     0.1     0.1     0.2     0.3     0.8     1.7     2.5     0.0     0.0     0.0     2.0     2.8     4.6     8.5    11.5    12.8     1.1     2.3     0.4     0.8     1.1     2.0     5.6    12.0    18.1
 1982 152   239    1.18    2.58    6.02    4.13   187.0   1.080   0.187   3.049   6.578     4.1    16.0    20.2    42.0     271    4.44    0.27   37.56   33.80     0.0     0.0     0.0     3.7     3.4     3.2     6.5    10.8    14.4     54.     81.     24.     31.     29.     31.     16.      5.      0.     0.1     0.1     0.0     0.2     0.2     0.2     0.5     1.3     2.2     0.0     0.0     0.0     3.6     3.2     3.1     6.0     9.5    12.1     0.3     0.5     0.1     1.1     1.2     1.4     3.7     9.3    16.2
 1982 153   240    1.19    2.60    6.04    4.14   187.5   1.081   0.188   3.060   6.585     4.4    17.8    22.5    12.3     506    1.25    0.51   11.04    7.66     0.0     0.0     0.0     0.6     0.3     0.9     2.0     3.6     4.9    122.    181.     69.     40.     36.     33.     18.      5.      0.     0.1     0.2     0.1     0.1     0.0     0.1     0.2     0.4     0.7     0.0     0.0     0.0     0.6     0.3     0.8     1.9     3.2     4.2     0.8     1.2     0.4     0.4     0.3     0.5     1.1     2.8     0.0
 1982 154   241    1.19    2.62    6.06    4.15   187.8   1.082   0.188   3.066   6.593     4.2    17.8    22.5     7.0     377    0.74    0.38    6.30    8.11     0.0     0.0     0.0     0.2     0.0     0.7     0.7     2.0     3.4     81.     91.     56.     37.     58.     30.     18.      6.      2.     0.1     0.1     0.1     0.0     0.1     0.1     0.1     0.2     0.5     0.0     0.0     0.0     0.2     0.0     0.7     0.6     1.8     3.0     0.5     0.6     0.3     0.3     0.4     0.4     0.5     1.5     3.5
 1982 155   242    1.19    2.63    6.09    4.15   188.2   1.083   0.189   3.070   6.599     4.1    17.9    22.5     4.4     332    0.43    0.33    4.02    5.47     0.0     0.0     0.0     0.0     0.0     0.6     0.6     1.9     1.3     37.    112.     47.     35.     48.     27.     17.      7.      2.     0.0     0.1     0.0     0.0     0.0     0.1     0.1     0.2     0.2     0.0     0.0     0.0     0.0     0.0     0.6     0.6     1.7     1.1     0.2     0.7     0.3     0.3     0.3     0.4     0.4     1.5     1.3
 1982 156   243    1.20    2.65    6.11    4.16   188.5   1.083   0.189   3.074   6.604     4.0    18.1    22.6     4.1     375    0.41    0.38    3.72    5.62     0.0     0.0     0.0     0.0     0.0     0.5     0.5     1.9     1.3     58.    124.     42.     58.     42.     26.     16.      7.      3.     0.1     0.1     0.0     0.1     0.0     0.0     0.0     0.2     0.2     0.0     0.0     0.0     0.0     0.0     0.4     0.5     1.7     1.1     0.4     0.8     0.3     0.4     0.3     0.3     0.4     1.5     1.3
 1982 157   244    1.20    2.67    6.13    4.16   188.8   1.083   0.189   3.077   6.609     3.9    18.5    22.7     3.8     238    0.39    0.24    3.43    4.59     0.0     0.0     0.0     0.0     0.0     0.3     0.4     1.9     1.3     23.     32.     40.     52.     39.     26.     16.      7.      3.     0.0     0.0     0.0     0.1     0.0     0.0     0.0     0.2     0.2     0.0     0.0     0.0     0.0     0.0     0.3     0.4     1.7     1.1     0.1     0.2     0.2     0.4     0.3     0.3     0.3     1.4     1.3
 1982 158   245    1.21    2.69    6.15    4.16   189.1   1.084   0.190   3.080   6.614     3.9    19.0    23.2     3.7     333    0.40    0.33    3.34    5.28     0.0     0.0     0.0     0.0     0.0     0.2     0.3     2.0     1.4     51.     77.     46.     56.     43.     29.     18.      8.      4.     0.1     0.1     0.0     0.1     0.0     0.0     0.0     0.2     0.2     0.0     0.0     0.0     0.0     0.0     0.1     0.3     1.8     1.2     0.3     0.5     0.3     0.4     0.3     0.3     0.3     1.5     1.4
 1982 159   246    1.21    2.71    6.18    4.17   189.5   1.084   0.190   3.083   6.620     3.7    18.8    22.8     3.5     339    0.39    0.34    3.10    5.23     0.0     0.0     0.0     0.0     0.0     0.0     0.1     2.0     1.4     73.     53.     48.     55.     43.     33.     20.      9.      5.     0.1     0.1     0.0     0.1     0.0     0.0     0.0     0.2     0.2     0.0     0.0     0.0     0.0     0.0     0.0     0.1     1.8     1.2     0.5     0.3     0.3     0.4     0.3     0.3     0.2     1.5     1.4
 1982 160   247    1.21    2.73    6.20    4.17   189.9   1.084   0.190   3.087   6.626     3.7    19.3    23.3     3.5     485    0.40    0.49    3.14    6.32     0.0     0.0     0.0     0.0     0.0     0.0     0.0     2.1     1.5     43.    202.     55.     59.     47.     38.     24.     11.      7.     0.0     0.2     0.1     0.1     0.0     0.0     0.0     0.2     0.2     0.0     0.0     0.0     0.0     0.0     0.0     0.0     1.9     1.3     0.3     1.3     0.3     0.4     0.3     0.3     0.2     1.6     1.5
 1982 161   248    1.22    2.75    6.22    4.17   190.2   1.085   0.191   3.090   6.631     3.6    19.2    23.1     3.6     281    0.41    0.28    3.19    4.97     0.0     0.0     0.0     0.0     0.0     0.0     0.0     2.1     1.5     89.     29.     23.     28.     27.     40.     25.     12.      8.     0.1     0.0     0.0     0.0     0.0     0.0     0.0     0.2     0.2     0.0     0.0     0.0     0.0     0.0     0.0     0.0     1.9     1.3     0.6     0.2     0.1     0.2     0.2     0.3     0.2     1.7     1.5
 1982 162   249    1.22    2.77    6.25    4.18   190.7   1.085   0.191   3.093   6.637     3.6    19.5    23.6     3.5     454    0.39    0.45    3.13    6.05     0.0     0.0     0.0     0.0     0.0     0.0     0.0     2.1     1.5     47.    159.     69.     37.     53.     40.     26.     13.      9.     0.0     0.2     0.1     0.0     0.1     0.0     0.0     0.2     0.2     0.0     0.0     0.0     0.0     0.0     0.0     0.0     1.9     1.3     0.3     1.0     0.4     0.3     0.4     0.3     0.2     1.6     1.5
 1982 163   250    1.22    2.79    6.27    4.18   191.2   1.086   0.192   3.096   6.643     3.6    19.7    23.9     3.4     505    0.38    0.51    3.00    6.28     0.0     0.0     0.0     0.0     0.0     0.0     0.0     2.0     1.4     75.    180.     58.     63.     46.     36.     25.     13.     10.     0.1     0.2     0.1     0.1     0.0     0.0     0.0     0.2     0.2     0.0     0.0     0.0     0.0     0.0     0.0     0.0     1.8     1.2     0.5     1.2     0.4     0.5     0.3     0.3     0.2     1.5     1.5
 1982 164   251    1.23    2.81    6.30    4.18   191.7   1.086   0.192   3.099   6.650     3.7    20.1    24.5     3.3     525    0.37    0.53    2.97    6.40     0.0     0.0     0.0     0.0     0.0     0.0     0.0     1.9     1.4     90.    195.     55.     57.     44.     36.     25.     14.     10.     0.1     0.2     0.1     0.1     0.0     0.0     0.0     0.2     0.2     0.0     0.0     0.0     0.0     0.0     0.0     0.0     1.7     1.2     0.6     1.3     0.3     0.4     0.3     0.3     0.2     1.5     1.5
 1982 165   252    1.23    2.83    6.32    4.19   192.1   1.086   0.193   3.102   6.655     3.7    20.5    25.0     3.2     387    0.36    0.39    2.88    5.41     0.0     0.0     0.0     0.0     0.0     0.0     0.0     1.9     1.4     83.     83.     50.     50.     40.     34.     24.     13.     10.     0.1     0.1     0.0     0.0     0.0     0.0     0.0     0.2     0.2     0.0     0.0     0.0     0.0     0.0     0.0     0.0     1.7     1.2     0.6     0.5     0.3     0.4     0.3     0.3     0.2     1.5     1.4
 1982 166   253    1.23    2.85    6.35    4.19   192.5   1.087   0.193   3.105   6.661     3.7    20.2    24.8     3.2     413    0.36    0.41    2.88    5.58     0.0     0.0     0.0     0.0     0.0     0.0     0.0     1.9     1.4     78.    116.     49.     48.     40.     34.     24.     14.     10.     0.1     0.1     0.0     0.0     0.0     0.0     0.0     0.2     0.2     0.0     0.0     0.0     0.0     0.0     0.0     0.0     1.7     1.2     0.5     0.8     0.3     0.4     0.3     0.3     0.2     1.5     1.4
 1982 167   254    1.24    2.86    6.37    4.19   192.8   1.087   0.193   3.108   6.666     3.2    17.6    21.7     3.3     319    0.37    0.32    2.94    4.95     0.0     0.0     0.0     0.0     0.0     0.0     0.0     1.9     1.4     78.     61.     24.     28.     42.     36.     25.     15.     11.     0.1     0.1     0.0     0.0     0.0     0.0     0.0     0.2     0.2     0.0     0.0     0.0     0.0     0.0     0.0     0.0     1.7     1.2     0.5     0.4     0.1     0.2     0.3     0.3     0.2     1.5     1.5
 1982 168   255    1.24    2.88    6.39    4.20   193.3   1.088   0.194   3.111   6.672     3.2    17.6    21.8     3.4     500    0.38    0.50    2.98    6.23     0.0     0.0     0.0     0.0     0.0     0.0     0.0     1.9     1.5     41.    207.     62.     57.     43.     37.     26.     15.     12.     0.0     0.2     0.1     0.1     0.0     0.0     0.0     0.2     0.2     0.0     0.0     0.0     0.0     0.0     0.0     0.0     1.7     1.3     0.3     1.4     0.4     0.4     0.3     0.3     0.2     1.5     1.5
 1982 169   256    1.24    2.90    6.41    4.20   193.7   1.088   0.194   3.114   6.677     3.2    17.6    21.9     3.4     372    0.38    0.37    2.97    5.40     0.0     0.0     0.0     0.0     0.0     0.0     0.0     1.9     1.5     70.     51.     60.     54.     43.     38.     27.     16.     12.     0.1     0.1     0.1     0.1     0.0     0.0     0.0     0.2     0.2     0.0     0.0     0.0     0.0     0.0     0.0     0.0     1.7     1.3     0.5     0.3     0.4     0.4     0.3     0.3     0.2     1.5     1.5
 1982 170   257    1.25    2.92    6.43    4.20   194.1   1.088   0.195   3.117   6.683     3.1    17.2    21.6     3.3     436    0.37    0.44    2.96    5.82     0.0     0.0     0.0     0.0     0.0     0.0     0.0     1.9     1.5     78.    113.     58.     52.     43.     38.     27.     16.     13.     0.1     0.1     0.1     0.1     0.0     0.0     0.0     0.2     0.2     0.0     0.0     0.0     0.0     0.0     0.0     0.0     1.7     1.3     0.5     0.7     0.4     0.4     0.3     0.3     0.2     1.5     1.5
 1982 171   258    1.25    2.93    6.45    4.21   194.6   1.089   0.195   3.119   6.689     3.2    17.4    22.0     3.2     428    0.36    0.43    2.87    5.69     0.0     0.0     0.0     0.0     0.0     0.0     0.0     1.8     1.4     63.    136.     52.     47.     40.     36.     26.     16.     12.     0.1     0.1     0.1     0.0     0.0     0.0     0.0     0.2     0.2     0.0     0.0     0.0     0.0     0.0     0.0     0.0     1.6     1.2     0.4     0.9     0.3     0.3     0.3     0.3     0.2     1.4     1.5
 1982 172   259    1.25    2.95    6.48    4.21   195.0   1.089   0.195   3.122   6.694     3.1    16.7    21.3     3.2     421    0.36    0.42    2.85    5.62     0.0     0.0     0.0     0.0     0.0     0.0     0.0     1.8     1.4     43.    150.     51.     46.     40.     36.     26.     16.     13.     0.0     0.2     0.1     0.0     0.0     0.0     0.0     0.2     0.2     0.0     0.0     0.0     0.0     0.0     0.0     0.0     1.6     1.2     0.3     1.0     0.3     0.3     0.3     0.3     0.2     1.4     1.5
 1982 173   260    1.26    2.97    6.50    4.21   195.4   1.089   0.196   3.125   6.700     2.9    15.7    20.2     3.2     427    0.36    0.43    2.87    5.69     0.0     0.0     0.0     0.0     0.0     0.0     0.0     1.8     1.4     32.    161.     53.     48.     41.     37.     26.     16.     13.     0.0     0.2     0.1     0.0     0.0     0.0     0.0     0.2     0.2     0.0     0.0     0.0     0.0     0.0     0.0     0.0     1.6     1.2     0.2     1.1     0.3     0.3     0.3     0.3     0.2     1.4     1.5
 1982 174   261    1.26    2.98    6.51    4.22   195.8   1.090   0.196   3.128   6.705     1.8     9.9    12.8     3.2     404    0.36    0.40    2.84    5.45     0.0     0.0     0.0     0.0     0.0     0.0     0.0     1.8     1.4     16.    156.     52.     47.     41.     37.     26.     16.     13.     0.0     0.2     0.1     0.0     0.0     0.0     0.0     0.2     0.2     0.0     0.0     0.0     0.0     0.0     0.0     0.0     1.6     1.2     0.1     1.0     0.3     0.3     0.3     0.3     0.2     1.4     1.5
