*SOIL WATER DAILY OUTPUT FILE

*DSSAT Cropping System Model Ver. 4.8.5.000 -release  SEP 11, 2025 14:40:05

*RUN   1        : DRYLAND  - 0 KG N/HA      CSCER048 KSAS8101    1
 MODEL          : CSCER048 - Wheat
 EXPERIMENT     : KSAS8101 WH N RESPONSE,KANSAS STATE  3FE(N)*2IR  (DSSAT3)
 DATA PATH      :
 TREATMENT  1   : DRYLAND  - 0 KG N/HA      CSCER048
  
!                                                                                                                                   Soil water content (mm3/mm3) by soil depth (cm):
!                                                                                                                                   0-5    5-15   15-30   30-45   45-60   60-90  90-120 120-150 150-180
@YEAR DOY   DAS    SWTD    SWXD    ROFC    DRNC    PREC    IR#C    IRRC   LATFC    DTWT    MWTD    TDFD    TDFC    ROFD    ROSD    SW1D    SW2D    SW3D    SW4D    SW5D    SW6D    SW7D    SW8D    SW9D
 1981 278     0     163      91       0       0       0       0       0       0     180    0.00     0.0     0.0    0.00    0.00   0.205   0.205   0.170   0.092   0.092   0.065   0.066   0.066   0.066
 1981 279     1     159      87       0       0       0       0       0       0     180    0.00     0.0     0.0    0.00    0.00   0.133   0.203   0.171   0.092   0.092   0.065   0.066   0.066   0.066
 1981 280     2     157      86       0       0       0       0       0       0     180    0.00     0.0     0.0    0.00    0.00   0.110   0.195   0.172   0.093   0.092   0.065   0.066   0.066   0.066
 1981 281     3     155      83       0       0       0       0       0       0     180    0.00     0.0     0.0    0.00    0.00   0.072   0.189   0.173   0.093   0.092   0.065   0.066   0.066   0.066
 1981 282     4     154      83       0       0       0       0       0       0     180    0.00     0.0     0.0    0.00    0.00   0.070   0.182   0.173   0.093   0.092   0.065   0.066   0.066   0.066
 1981 283     5     153      82       0       0       0       0       0       0     180    0.00     0.0     0.0    0.00    0.00   0.057   0.177   0.173   0.094   0.092   0.065   0.066   0.066   0.066
 1981 284     6     153      81       0       0       0       0       0       0     180    0.00     0.0     0.0    0.00    0.00   0.056   0.172   0.173   0.094   0.092   0.065   0.066   0.066   0.066
 1981 285     7     159      87       0       0       6       0       0       0     180    0.00     0.0     0.0    0.00    0.00   0.183   0.168   0.173   0.094   0.092   0.065   0.066   0.066   0.066
 1981 286     8     158      87       0       0       6       0       0       0     180    0.00     0.0     0.0    0.00    0.00   0.172   0.169   0.173   0.094   0.092   0.065   0.066   0.066   0.066
 1981 287     9     159      87       0       0       8       0       0       0     180    0.00     0.0     0.0    0.00    0.00   0.178   0.169   0.173   0.095   0.092   0.065   0.066   0.066   0.066
 1981 288    10     157      86       0       0       8       0       0       0     180    0.00     0.0     0.0    0.00    0.00   0.150   0.169   0.172   0.095   0.093   0.065   0.066   0.066   0.066
 1981 289    11     157      85       0       0       8       0       0       0     180    0.00     0.0     0.0    0.00    0.00   0.138   0.168   0.172   0.095   0.093   0.065   0.066   0.066   0.066
 1981 290    12     166      94       0       0      21       0       0       0     180    0.00     0.0     0.0    0.00    0.00   0.195   0.228   0.177   0.095   0.093   0.065   0.066   0.066   0.066
 1981 291    13     164      92       0       0      21       0       0       0     180    0.00     0.0     0.0    0.00    0.00   0.158   0.218   0.180   0.096   0.093   0.065   0.066   0.066   0.066
 1981 292    14     161      89       0       0      21       0       0       0     180    0.00     0.0     0.0    0.00    0.00   0.104   0.209   0.182   0.096   0.093   0.065   0.066   0.066   0.066
 1981 293    15     159      87       0       0      21       0       0       0     180    0.00     0.0     0.0    0.00    0.00   0.090   0.200   0.182   0.097   0.093   0.065   0.066   0.066   0.066
 1981 294    16     158      86       0       0      21       0       0       0     180    0.00     0.0     0.0    0.00    0.00   0.080   0.192   0.183   0.097   0.093   0.065   0.066   0.066   0.066
 1981 295    17     157      85       0       0      21       0       0       0     180    0.00     0.0     0.0    0.00    0.00   0.073   0.186   0.183   0.097   0.093   0.065   0.066   0.066   0.066
 1981 296    18     156      84       0       0      21       0       0       0     180    0.00     0.0     0.0    0.00    0.00   0.066   0.180   0.183   0.098   0.093   0.065   0.066   0.066   0.066
 1981 297    19     155      84       0       0      21       0       0       0     180    0.00     0.0     0.0    0.00    0.00   0.061   0.175   0.182   0.098   0.093   0.065   0.066   0.066   0.066
 1981 298    20     158      86       0       0      24       0       0       0     180    0.00     0.0     0.0    0.00    0.00   0.116   0.171   0.182   0.098   0.093   0.065   0.066   0.066   0.066
 1981 299    21     157      85       0       0      24       0       0       0     180    0.00     0.0     0.0    0.00    0.00   0.103   0.169   0.181   0.099   0.093   0.065   0.066   0.066   0.066
 1981 300    22     156      84       0       0      24       0       0       0     180    0.00     0.0     0.0    0.00    0.00   0.092   0.166   0.181   0.099   0.094   0.065   0.066   0.066   0.066
 1981 301    23     155      83       0       0      24       0       0       0     180    0.00     0.0     0.0    0.00    0.00   0.084   0.163   0.180   0.099   0.094   0.065   0.066   0.066   0.066
 1981 302    24     154      83       0       0      24       0       0       0     180    0.00     0.0     0.0    0.00    0.00   0.076   0.160   0.180   0.099   0.094   0.065   0.066   0.066   0.066
 1981 303    25     154      82       0       0      24       0       0       0     180    0.00     0.0     0.0    0.00    0.00   0.069   0.157   0.179   0.100   0.094   0.065   0.066   0.066   0.066
 1981 304    26     154      82       0       0      25       0       0       0     180    0.00     0.0     0.0    0.00    0.00   0.078   0.155   0.178   0.100   0.094   0.065   0.066   0.066   0.066
 1981 305    27     216     144       6       0      93       0       0       0     180    0.00     0.0     0.0    5.87    0.00   0.242   0.243   0.259   0.170   0.170   0.095   0.071   0.066   0.066
 1981 306    28     218     147       6       0      96       0       0       0     180    0.00     0.0     0.0    0.00    0.00   0.237   0.243   0.255   0.169   0.170   0.097   0.081   0.066   0.066
 1981 307    29     217     146       6       0      96       0       0       0     180    0.00     0.0     0.0    0.00    0.00   0.209   0.234   0.250   0.166   0.167   0.097   0.088   0.068   0.066
 1981 308    30     230     158       6       0     110       0       0       0     180    0.00     0.0     0.0    0.03    0.00   0.240   0.242   0.260   0.170   0.170   0.104   0.095   0.081   0.066
 1981 309    31     230     159       6       0     113       0       0       0     180    0.00     0.0     0.0    0.00    0.00   0.201   0.241   0.254   0.169   0.169   0.101   0.096   0.090   0.071
 1981 310    32     224     152       6       4     113       0       0       0     180    0.00     0.0     0.0    0.00    0.00   0.163   0.227   0.246   0.160   0.160   0.095   0.091   0.088   0.087
 1981 311    33     220     148       6       7     113       0       0       0     180    0.00     0.0     0.0    0.00    0.00   0.154   0.219   0.242   0.156   0.156   0.093   0.088   0.088   0.087
 1981 312    34     237     165       6       8     131       0       0       0     179    0.00     0.0     0.0    0.00    0.00   0.258   0.239   0.259   0.170   0.170   0.097   0.091   0.090   0.089
 1981 313    35     241     169       6      10     139       0       0       0     177    0.00     0.0     0.0    0.03    0.00   0.209   0.244   0.260   0.170   0.170   0.104   0.096   0.094   0.092
 1981 314    36     227     155       6      22     139       0       0       0     179    0.00     0.0     0.0    0.00    0.00   0.174   0.229   0.248   0.160   0.160   0.096   0.091   0.090   0.089
 1981 315    37     221     149       6      26     139       0       0       0     179    0.00     0.0     0.0    0.00    0.00   0.154   0.220   0.243   0.157   0.157   0.093   0.089   0.090   0.089
 1981 316    38     219     147       6      26     139       0       0       0     179    0.00     0.0     0.0    0.00    0.00   0.126   0.213   0.241   0.157   0.157   0.093   0.089   0.090   0.089
 1981 317    39     217     145       6      26     139       0       0       0     179    0.00     0.0     0.0    0.00    0.00   0.106   0.207   0.239   0.156   0.157   0.093   0.089   0.090   0.089
 1981 318    40     216     144       6      26     139       0       0       0     179    0.00     0.0     0.0    0.00    0.00   0.095   0.202   0.237   0.156   0.157   0.093   0.089   0.090   0.089
 1981 319    41     214     143       6      26     139       0       0       0     179    0.00     0.0     0.0    0.00    0.00   0.089   0.198   0.235   0.156   0.157   0.093   0.089   0.090   0.089
 1981 320    42     213     142       6      26     139       0       0       0     179    0.00     0.0     0.0    0.00    0.00   0.084   0.193   0.233   0.156   0.157   0.093   0.089   0.090   0.089
 1981 321    43     212     141       6      26     139       0       0       0     179    0.00     0.0     0.0    0.00    0.00   0.080   0.190   0.231   0.155   0.157   0.093   0.089   0.090   0.089
 1981 322    44     212     140       6      26     139       0       0       0     179    0.00     0.0     0.0    0.00    0.00   0.076   0.186   0.229   0.155   0.157   0.093   0.089   0.090   0.089
 1981 323    45     211     140       6      26     139       0       0       0     179    0.00     0.0     0.0    0.00    0.00   0.080   0.184   0.227   0.154   0.157   0.093   0.089   0.090   0.089
 1981 324    46     210     139       6      26     139       0       0       0     179    0.00     0.0     0.0    0.00    0.00   0.077   0.182   0.225   0.154   0.157   0.093   0.089   0.090   0.089
 1981 325    47     210     138       6      26     139       0       0       0     179    0.00     0.0     0.0    0.00    0.00   0.074   0.179   0.224   0.153   0.157   0.093   0.089   0.090   0.089
 1981 326    48     209     137       6      26     139       0       0       0     179    0.00     0.0     0.0    0.00    0.00   0.071   0.177   0.222   0.153   0.157   0.093   0.089   0.090   0.089
 1981 327    49     208     137       6      26     139       0       0       0     179    0.00     0.0     0.0    0.00    0.00   0.069   0.175   0.220   0.152   0.156   0.093   0.089   0.090   0.089
 1981 328    50     208     136       6      26     139       0       0       0     179    0.00     0.0     0.0    0.00    0.00   0.067   0.173   0.219   0.151   0.156   0.093   0.089   0.090   0.089
 1981 329    51     207     135       6      26     139       0       0       0     179    0.00     0.0     0.0    0.00    0.00   0.065   0.171   0.217   0.151   0.156   0.093   0.089   0.090   0.089
 1981 330    52     206     135       6      26     139       0       0       0     179    0.00     0.0     0.0    0.00    0.00   0.063   0.169   0.215   0.150   0.156   0.093   0.089   0.090   0.089
 1981 331    53     206     134       6      26     139       0       0       0     179    0.00     0.0     0.0    0.00    0.00   0.061   0.168   0.214   0.150   0.156   0.093   0.089   0.090   0.089
 1981 332    54     205     134       6      26     139       0       0       0     179    0.00     0.0     0.0    0.00    0.00   0.059   0.166   0.213   0.149   0.156   0.093   0.089   0.090   0.089
 1981 333    55     205     133       6      26     139       0       0       0     179    0.00     0.0     0.0    0.00    0.00   0.057   0.165   0.212   0.149   0.156   0.093   0.089   0.090   0.089
 1981 334    56     224     152       6      26     158       0       0       0     179    0.00     0.0     0.0    0.00    0.00   0.252   0.239   0.226   0.148   0.156   0.093   0.089   0.090   0.089
 1981 335    57     235     163       6      27     171       0       0       0     178    0.00     0.0     0.0    0.23    0.00   0.242   0.243   0.261   0.170   0.164   0.095   0.090   0.090   0.090
 1981 336    58     227     155       6      34     171       0       0       0     178    0.00     0.0     0.0    0.00    0.00   0.208   0.232   0.248   0.160   0.158   0.093   0.090   0.090   0.090
 1981 337    59     223     152       6      36     171       0       0       0     178    0.00     0.0     0.0    0.00    0.00   0.183   0.224   0.243   0.156   0.156   0.093   0.090   0.090   0.090
 1981 338    60     222     150       6      36     171       0       0       0     178    0.00     0.0     0.0    0.00    0.00   0.165   0.219   0.242   0.156   0.156   0.093   0.090   0.090   0.090
 1981 339    61     221     149       6      36     171       0       0       0     178    0.00     0.0     0.0    0.00    0.00   0.166   0.214   0.241   0.156   0.156   0.093   0.090   0.090   0.090
 1981 340    62     220     149       6      36     171       0       0       0     178    0.00     0.0     0.0    0.00    0.00   0.162   0.210   0.239   0.156   0.156   0.093   0.090   0.090   0.090
 1981 341    63     219     147       6      36     171       0       0       0     178    0.00     0.0     0.0    0.00    0.00   0.139   0.207   0.237   0.156   0.156   0.093   0.090   0.090   0.090
 1981 342    64     217     146       6      36     171       0       0       0     178    0.00     0.0     0.0    0.00    0.00   0.127   0.203   0.235   0.156   0.156   0.093   0.090   0.090   0.090
 1981 343    65     216     144       6      36     171       0       0       0     178    0.00     0.0     0.0    0.00    0.00   0.115   0.199   0.234   0.155   0.156   0.093   0.090   0.090   0.090
 1981 344    66     216     144       6      36     171       0       0       0     178    0.00     0.0     0.0    0.00    0.00   0.123   0.196   0.232   0.155   0.156   0.093   0.090   0.090   0.090
 1981 345    67     216     144       6      36     171       0       0       0     178    0.00     0.0     0.0    0.00    0.00   0.130   0.193   0.231   0.155   0.156   0.093   0.090   0.090   0.090
 1981 346    68     215     144       6      36     171       0       0       0     178    0.00     0.0     0.0    0.00    0.00   0.136   0.192   0.229   0.154   0.156   0.093   0.090   0.090   0.090
 1981 347    69     215     144       6      36     171       0       0       0     178    0.00     0.0     0.0    0.00    0.00   0.141   0.190   0.228   0.154   0.156   0.093   0.090   0.090   0.090
 1981 348    70     215     143       6      36     172       0       0       0     178    0.00     0.0     0.0    0.00    0.00   0.146   0.189   0.227   0.153   0.156   0.093   0.090   0.090   0.090
 1981 349    71     215     143       6      36     172       0       0       0     178    0.00     0.0     0.0    0.00    0.00   0.147   0.188   0.225   0.153   0.155   0.093   0.090   0.090   0.090
 1981 350    72     215     143       6      36     172       0       0       0     178    0.00     0.0     0.0    0.00    0.00   0.152   0.187   0.224   0.152   0.155   0.093   0.090   0.090   0.090
 1981 351    73     215     143       6      36     176       0       0       0     178    0.00     0.0     0.0    0.00    0.00   0.156   0.187   0.223   0.152   0.155   0.093   0.090   0.090   0.090
 1981 352    74     215     143       6      36     176       0       0       0     178    0.00     0.0     0.0    0.00    0.00   0.160   0.187   0.222   0.152   0.155   0.093   0.090   0.090   0.090
 1981 353    75     215     143       6      36     176       0       0       0     178    0.01     0.0     0.0    0.00    0.00   0.162   0.187   0.222   0.151   0.155   0.093   0.090   0.090   0.090
 1981 354    76     217     145       6      36     176       0       0       0     178    0.03     0.0     0.0    0.00    0.00   0.218   0.187   0.221   0.151   0.155   0.093   0.090   0.090   0.090
 1981 355    77     219     147       6      36     177       0       0       0     178    0.03     0.0     0.0    0.00    0.00   0.232   0.201   0.220   0.150   0.155   0.093   0.090   0.090   0.090
 1981 356    78     219     147       6      36     177       0       0       0     178    0.03     0.0     0.0    0.00    0.00   0.218   0.207   0.221   0.150   0.155   0.093   0.090   0.090   0.090
 1981 357    79     218     146       6      36     177       0       0       0     178    0.03     0.0     0.0    0.00    0.00   0.189   0.208   0.221   0.150   0.155   0.093   0.090   0.090   0.090
 1981 358    80     216     145       6      36     177       0       0       0     178    0.03     0.0     0.0    0.00    0.00   0.166   0.206   0.221   0.149   0.155   0.093   0.090   0.090   0.090
 1981 359    81     215     144       6      36     177       0       0       0     178    0.03     0.0     0.0    0.00    0.00   0.154   0.203   0.221   0.149   0.154   0.093   0.090   0.090   0.090
 1981 360    82     215     143       6      36     177       0       0       0     178    0.03     0.0     0.0    0.00    0.00   0.152   0.199   0.221   0.149   0.154   0.093   0.090   0.090   0.090
 1981 361    83     215     143       6      36     177       0       0       0     178    0.03     0.0     0.0    0.00    0.00   0.157   0.196   0.221   0.149   0.154   0.093   0.090   0.090   0.090
 1981 362    84     214     143       6      36     177       0       0       0     178    0.03     0.0     0.0    0.00    0.00   0.158   0.194   0.220   0.148   0.154   0.093   0.090   0.090   0.090
 1981 363    85     214     142       6      36     177       0       0       0     178    0.03     0.0     0.0    0.00    0.00   0.152   0.193   0.220   0.148   0.154   0.093   0.090   0.090   0.090
 1981 364    86     213     141       6      36     177       0       0       0     178    0.03     0.0     0.0    0.00    0.00   0.141   0.191   0.219   0.148   0.154   0.093   0.090   0.090   0.090
 1981 365    87     212     140       6      36     177       0       0       0     178    0.03     0.0     0.0    0.00    0.00   0.132   0.189   0.218   0.148   0.154   0.093   0.090   0.090   0.090
 1982 001    88     212     140       6      36     177       0       0       0     178    0.03     0.0     0.0    0.00    0.00   0.138   0.187   0.218   0.147   0.153   0.093   0.090   0.090   0.090
 1982 002    89     214     142       6      36     179       0       0       0     178    0.03     0.0     0.0    0.00    0.00   0.182   0.185   0.217   0.147   0.153   0.093   0.090   0.090   0.090
 1982 003    90     214     142       6      36     180       0       0       0     178    0.03     0.0     0.0    0.00    0.00   0.182   0.186   0.216   0.147   0.153   0.093   0.090   0.090   0.090
 1982 004    91     219     147       6      36     184       0       0       0     178    0.03     0.0     0.0    0.00    0.00   0.236   0.210   0.216   0.147   0.153   0.093   0.090   0.090   0.090
 1982 005    92     217     146       6      36     184       0       0       0     178    0.03     0.0     0.0    0.00    0.00   0.198   0.215   0.217   0.146   0.153   0.093   0.090   0.090   0.090
 1982 006    93     217     146       6      36     184       0       0       0     178    0.03     0.0     0.0    0.00    0.00   0.202   0.212   0.218   0.146   0.152   0.093   0.090   0.090   0.090
 1982 007    94     217     145       6      36     184       0       0       0     178    0.03     0.0     0.0    0.00    0.00   0.202   0.210   0.218   0.146   0.152   0.093   0.090   0.090   0.090
 1982 008    95     216     144       6      36     184       0       0       0     178    0.03     0.0     0.0    0.00    0.00   0.184   0.209   0.219   0.146   0.152   0.093   0.090   0.090   0.090
 1982 009    96     216     144       6      36     184       0       0       0     178    0.03     0.0     0.0    0.00    0.00   0.186   0.206   0.219   0.146   0.152   0.093   0.090   0.090   0.090
 1982 010    97     216     144       6      36     184       0       0       0     178    0.03     0.0     0.0    0.00    0.00   0.190   0.204   0.219   0.146   0.152   0.093   0.090   0.090   0.090
 1982 011    98     216     144       6      36     184       0       0       0     178    0.03     0.0     0.0    0.00    0.00   0.191   0.203   0.219   0.146   0.152   0.093   0.090   0.090   0.090
 1982 012    99     216     144       6      36     184       0       0       0     178    0.03     0.0     0.0    0.00    0.00   0.193   0.202   0.219   0.146   0.152   0.093   0.090   0.090   0.090
 1982 013   100     216     144       6      36     187       0       0       0     178    0.03     0.0     0.0    0.00    0.00   0.194   0.201   0.219   0.145   0.151   0.093   0.090   0.090   0.090
 1982 014   101     217     146       6      36     187       0       0       0     178    0.04     0.0     0.0    0.00    0.00   0.212   0.208   0.219   0.145   0.151   0.092   0.090   0.090   0.090
 1982 015   102     216     145       6      36     187       0       0       0     178    0.04     0.0     0.0    0.00    0.00   0.194   0.208   0.219   0.145   0.151   0.092   0.090   0.090   0.090
 1982 016   103     216     145       6      36     187       0       0       0     178    0.03     0.0     0.0    0.00    0.00   0.196   0.206   0.220   0.145   0.151   0.092   0.090   0.090   0.090
 1982 017   104     216     144       6      36     187       0       0       0     178    0.03     0.0     0.0    0.00    0.00   0.193   0.205   0.220   0.145   0.151   0.092   0.090   0.090   0.090
 1982 018   105     215     143       6      36     187       0       0       0     178    0.03     0.0     0.0    0.00    0.00   0.170   0.204   0.220   0.145   0.151   0.092   0.090   0.090   0.090
 1982 019   106     214     142       6      36     187       0       0       0     178    0.03     0.0     0.0    0.00    0.00   0.156   0.201   0.220   0.145   0.151   0.092   0.090   0.090   0.090
 1982 020   107     214     142       6      36     187       0       0       0     178    0.03     0.0     0.0    0.00    0.00   0.163   0.198   0.219   0.145   0.150   0.092   0.090   0.090   0.090
 1982 021   108     214     142       6      36     187       0       0       0     178    0.03     0.0     0.0    0.00    0.00   0.168   0.196   0.219   0.145   0.150   0.092   0.090   0.090   0.090
 1982 022   109     215     144       6      36     189       0       0       0     178    0.04     0.0     0.0    0.00    0.00   0.204   0.195   0.218   0.145   0.150   0.092   0.090   0.090   0.090
 1982 023   110     215     143       6      36     200       0       0       0     178    0.04     0.0     0.0    0.00    0.00   0.200   0.197   0.218   0.145   0.150   0.092   0.090   0.090   0.090
 1982 024   111     215     143       6      36     200       0       0       0     178    0.03     0.0     0.0    0.00    0.00   0.194   0.198   0.218   0.145   0.150   0.092   0.090   0.090   0.090
 1982 025   112     219     148       6      36     200       0       0       0     178    0.04     0.0     0.0    0.00    0.00   0.227   0.227   0.218   0.144   0.150   0.092   0.090   0.090   0.090
 1982 026   113     224     152       6      36     200       0       0       0     178    0.04     0.0     0.0    0.00    0.00   0.215   0.243   0.239   0.144   0.150   0.092   0.090   0.090   0.090
 1982 027   114     222     150       6      36     200       0       0       0     178    0.04     0.0     0.0    0.00    0.00   0.182   0.230   0.240   0.151   0.150   0.092   0.090   0.090   0.090
 1982 028   115     220     149       6      36     200       0       0       0     178    0.03     0.0     0.0    0.00    0.00   0.166   0.221   0.240   0.153   0.150   0.092   0.090   0.090   0.090
 1982 029   116     220     148       6      36     200       0       0       0     178    0.03     0.0     0.0    0.00    0.00   0.176   0.216   0.239   0.153   0.150   0.092   0.090   0.090   0.090
 1982 030   117     225     153       6      36     206       0       0       0     178    0.04     0.0     0.0    0.00    0.00   0.249   0.224   0.240   0.153   0.150   0.092   0.090   0.090   0.090
 1982 031   118     225     153       6      36     206       0       0       0     178    0.04     0.0     0.0    0.00    0.00   0.232   0.225   0.240   0.154   0.153   0.092   0.090   0.090   0.090
 1982 032   119     224     153       6      36     206       0       0       0     178    0.03     0.0     0.0    0.00    0.00   0.220   0.225   0.240   0.154   0.154   0.092   0.090   0.090   0.090
 1982 033   120     224     152       6      36     206       0       0       0     178    0.03     0.0     0.0    0.00    0.00   0.219   0.224   0.240   0.154   0.154   0.092   0.090   0.090   0.090
 1982 034   121     224     152       6      36     207       0       0       0     178    0.03     0.0     0.0    0.00    0.00   0.219   0.224   0.240   0.154   0.154   0.092   0.090   0.090   0.090
 1982 035   122     224     152       6      36     207       0       0       0     178    0.03     0.0     0.0    0.00    0.00   0.221   0.223   0.240   0.154   0.154   0.092   0.090   0.090   0.090
 1982 036   123     224     152       6      36     213       0       0       0     178    0.03     0.0     0.0    0.00    0.00   0.221   0.223   0.240   0.154   0.154   0.092   0.090   0.090   0.090
 1982 037   124     224     152       6      36     213       0       0       0     178    0.03     0.0     0.0    0.00    0.00   0.218   0.223   0.239   0.154   0.154   0.092   0.090   0.090   0.090
 1982 038   125     225     153       6      36     213       0       0       0     178    0.04     0.0     0.0    0.00    0.00   0.227   0.228   0.242   0.154   0.154   0.092   0.090   0.090   0.090
 1982 039   126     225     153       6      36     213       0       0       0     178    0.04     0.0     0.0    0.00    0.00   0.226   0.228   0.242   0.154   0.154   0.092   0.090   0.090   0.090
 1982 040   127     225     153       6      36     222       0       0       0     178    0.03     0.0     0.0    0.00    0.00   0.225   0.228   0.242   0.154   0.154   0.092   0.090   0.090   0.090
 1982 041   128     225     153       6      36     222       0       0       0     178    0.03     0.0     0.0    0.00    0.00   0.222   0.228   0.242   0.154   0.154   0.092   0.090   0.090   0.090
 1982 042   129     225     153       6      36     222       0       0       0     178    0.03     0.0     0.0    0.00    0.00   0.215   0.227   0.242   0.154   0.154   0.092   0.090   0.090   0.090
 1982 043   130     237     165       6      37     230       0       0       0     178    0.04     0.0     0.0    0.00    0.00   0.242   0.243   0.260   0.170   0.169   0.096   0.091   0.091   0.090
 1982 044   131     237     166       6      39     230       0       0       0     177    0.04     0.0     0.0    0.00    0.00   0.221   0.245   0.257   0.170   0.170   0.098   0.093   0.092   0.091
 1982 045   132     238     166       6      41     230       0       0       0     177    0.04     0.0     0.0    0.00    0.00   0.211   0.244   0.256   0.170   0.170   0.099   0.094   0.093   0.092
 1982 046   133     227     155       6      52     230       0       0       0     179    0.04     0.0     0.0    0.00    0.00   0.201   0.230   0.246   0.160   0.160   0.094   0.090   0.089   0.089
 1982 047   134     226     154       6      53     231       0       0       0     179    0.04     0.0     0.0    0.00    0.00   0.207   0.224   0.243   0.159   0.159   0.094   0.090   0.090   0.089
 1982 048   135     224     153       6      54     231       0       0       0     179    0.04     0.0     0.0    0.00    0.00   0.209   0.222   0.241   0.156   0.156   0.094   0.090   0.090   0.089
 1982 049   136     226     154       6      55     235       0       0       0     179    0.04     0.0     0.0    0.00    0.00   0.214   0.233   0.244   0.157   0.157   0.093   0.089   0.089   0.089
 1982 050   137     222     150       6      56     235       0       0       0     179    0.04     0.0     0.0    0.00    0.00   0.161   0.226   0.241   0.155   0.157   0.093   0.089   0.089   0.089
 1982 051   138     220     148       6      56     235       0       0       0     179    0.03     0.0     0.0    0.00    0.00   0.137   0.219   0.241   0.155   0.157   0.093   0.089   0.089   0.089
 1982 052   139     218     146       6      56     235       0       0       0     179    0.03     0.0     0.0    0.00    0.00   0.109   0.213   0.240   0.155   0.157   0.093   0.089   0.089   0.089
 1982 053   140     216     145       6      56     235       0       0       0     179    0.03     0.0     0.0    0.00    0.00   0.098   0.207   0.238   0.155   0.157   0.093   0.089   0.089   0.089
 1982 054   141     216     144       6      56     235       0       0       0     179    0.03     0.0     0.0    0.00    0.00   0.107   0.203   0.237   0.155   0.157   0.093   0.089   0.089   0.089
 1982 055   142     215     143       6      56     235       0       0       0     179    0.03     0.0     0.0    0.00    0.00   0.099   0.199   0.235   0.155   0.157   0.093   0.089   0.089   0.089
 1982 056   143     214     143       6      56     235       0       0       0     179    0.03     0.0     0.0    0.00    0.00   0.096   0.195   0.233   0.155   0.157   0.093   0.089   0.089   0.089
 1982 057   144     214     142       6      56     235       0       0       0     179    0.03     0.0     0.0    0.00    0.00   0.092   0.193   0.232   0.154   0.157   0.093   0.089   0.089   0.089
 1982 058   145     213     141       6      56     235       0       0       0     179    0.03     0.0     0.0    0.00    0.00   0.089   0.190   0.230   0.154   0.157   0.093   0.089   0.089   0.089
 1982 059   146     212     140       6      56     235       0       0       0     179    0.03     0.0     0.0    0.00    0.00   0.086   0.187   0.229   0.153   0.157   0.093   0.089   0.089   0.089
 1982 060   147     212     140       6      56     235       0       0       0     179    0.03     0.0     0.0    0.00    0.00   0.083   0.185   0.227   0.153   0.157   0.093   0.089   0.089   0.089
 1982 061   148     211     139       6      56     235       0       0       0     179    0.03     0.0     0.0    0.00    0.00   0.081   0.183   0.226   0.153   0.157   0.093   0.089   0.089   0.089
 1982 062   149     211     139       6      56     235       0       0       0     179    0.03     0.0     0.0    0.00    0.00   0.090   0.181   0.224   0.152   0.157   0.093   0.089   0.089   0.089
 1982 063   150     211     139       6      56     236       0       0       0     179    0.02     0.0     0.0    0.00    0.00   0.095   0.180   0.223   0.152   0.157   0.093   0.089   0.089   0.089
 1982 064   151     210     139       6      56     236       0       0       0     179    0.02     0.0     0.0    0.00    0.00   0.099   0.178   0.222   0.151   0.156   0.093   0.089   0.089   0.089
 1982 065   152     210     138       6      56     236       0       0       0     179    0.04     0.0     0.0    0.00    0.00   0.096   0.177   0.220   0.151   0.156   0.093   0.089   0.089   0.089
 1982 066   153     209     138       6      56     236       0       0       0     179    0.04     0.0     0.0    0.00    0.00   0.093   0.176   0.219   0.150   0.156   0.093   0.089   0.089   0.089
 1982 067   154     209     137       6      56     236       0       0       0     179    0.03     0.0     0.0    0.00    0.00   0.091   0.175   0.218   0.150   0.156   0.093   0.089   0.089   0.089
 1982 068   155     208     137       6      56     236       0       0       0     179    0.03     0.0     0.0    0.00    0.00   0.089   0.173   0.217   0.150   0.156   0.093   0.089   0.089   0.089
 1982 069   156     208     136       6      56     236       0       0       0     179    0.03     0.0     0.0    0.00    0.00   0.087   0.172   0.216   0.149   0.156   0.093   0.089   0.089   0.089
 1982 070   157     207     136       6      56     236       0       0       0     179    0.03     0.0     0.0    0.00    0.00   0.085   0.171   0.214   0.149   0.156   0.093   0.089   0.089   0.089
 1982 071   158     207     135       6      56     236       0       0       0     179    0.03     0.0     0.0    0.00    0.00   0.083   0.169   0.213   0.148   0.155   0.093   0.089   0.089   0.089
 1982 072   159     207     135       6      56     236       0       0       0     179    0.03     0.0     0.0    0.00    0.00   0.082   0.168   0.212   0.148   0.155   0.093   0.089   0.089   0.089
 1982 073   160     207     135       6      56     236       0       0       0     179    0.04     0.0     0.0    0.00    0.00   0.094   0.167   0.211   0.147   0.155   0.093   0.089   0.089   0.089
 1982 074   161     228     156       6      56     258       0       0       0     179    0.04     0.0     0.0    0.00    0.00   0.234   0.244   0.244   0.155   0.155   0.093   0.089   0.089   0.089
 1982 075   162     234     163       6      58     271       0       0       0     178    0.04     0.0     0.0    0.02    0.00   0.168   0.245   0.260   0.170   0.170   0.098   0.092   0.091   0.090
 1982 076   163     222     151       6      67     271       0       0       0     179    0.04     0.0     0.0    0.00    0.00   0.130   0.225   0.248   0.160   0.160   0.094   0.089   0.089   0.088
 1982 077   164     220     148       6      69     271       0       0       0     179    0.03     0.0     0.0    0.00    0.00   0.142   0.217   0.242   0.157   0.157   0.094   0.089   0.089   0.088
 1982 078   165     231     159       6      70     286       0       0       0     179    0.04     0.0     0.0    0.00    0.00   0.192   0.239   0.258   0.168   0.163   0.095   0.090   0.090   0.089
 1982 079   166     222     151       6      76     286       0       0       0     179    0.04     0.0     0.0    0.00    0.00   0.145   0.225   0.247   0.159   0.158   0.093   0.088   0.090   0.089
 1982 080   167     218     146       6      77     286       0       0       0     179    0.03     0.0     0.0    0.00    0.00   0.113   0.217   0.241   0.156   0.155   0.093   0.088   0.090   0.089
 1982 081   168     217     145       6      77     286       0       0       0     179    0.03     0.0     0.0    0.00    0.00   0.102   0.209   0.239   0.156   0.155   0.093   0.088   0.090   0.089
 1982 082   169     215     144       6      77     286       0       0       0     179    0.03     0.0     0.0    0.00    0.00   0.096   0.204   0.237   0.156   0.155   0.093   0.088   0.090   0.089
 1982 083   170     214     142       6      77     286       0       0       0     179    0.03     0.0     0.0    0.00    0.00   0.091   0.199   0.235   0.155   0.155   0.093   0.088   0.090   0.089
 1982 084   171     216     144       6      77     291       0       0       0     179    0.04     0.0     0.0    0.00    0.00   0.146   0.194   0.232   0.155   0.155   0.093   0.088   0.090   0.089
 1982 085   172     214     143       6      77     291       0       0       0     179    0.04     0.0     0.0    0.00    0.00   0.130   0.192   0.230   0.154   0.155   0.093   0.088   0.090   0.089
 1982 086   173     213     142       6      77     291       0       0       0     179    0.03     0.0     0.0    0.00    0.00   0.119   0.189   0.228   0.154   0.155   0.093   0.088   0.090   0.089
 1982 087   174     212     140       6      77     291       0       0       0     179    0.03     0.0     0.0    0.00    0.00   0.111   0.187   0.226   0.153   0.155   0.093   0.088   0.090   0.089
 1982 088   175     211     140       6      77     291       0       0       0     179    0.03     0.0     0.0    0.00    0.00   0.105   0.184   0.224   0.153   0.155   0.093   0.088   0.090   0.089
 1982 089   176     211     139       6      77     292       0       0       0     179    0.04     0.0     0.0    0.00    0.00   0.119   0.180   0.222   0.152   0.154   0.093   0.088   0.090   0.089
 1982 090   177     209     138       6      77     292       0       0       0     179    0.04     0.0     0.0    0.00    0.00   0.110   0.177   0.219   0.151   0.154   0.093   0.088   0.090   0.089
 1982 091   178     208     136       6      77     292       0       0       0     179    0.03     0.0     0.0    0.00    0.00   0.103   0.172   0.215   0.150   0.154   0.092   0.088   0.090   0.089
 1982 092   179     207     135       6      77     292       0       0       0     179    0.03     0.0     0.0    0.00    0.00   0.097   0.168   0.212   0.149   0.153   0.092   0.088   0.090   0.089
 1982 093   180     205     133       6      77     292       0       0       0     179    0.03     0.0     0.0    0.00    0.00   0.091   0.164   0.208   0.148   0.152   0.092   0.088   0.090   0.089
 1982 094   181     204     132       6      77     292       0       0       0     179    0.03     0.0     0.0    0.00    0.00   0.085   0.160   0.206   0.147   0.152   0.092   0.088   0.090   0.089
 1982 095   182     209     137       6      77     299       0       0       0     179    0.04     0.0     0.0    0.00    0.00   0.202   0.158   0.204   0.146   0.152   0.092   0.088   0.090   0.089
 1982 096   183     207     136       6      77     299       0       0       0     179    0.04     0.0     0.0    0.00    0.00   0.175   0.161   0.202   0.145   0.151   0.092   0.088   0.090   0.089
 1982 097   184     207     135       6      77     299       0       0       0     179    0.04     0.0     0.0    0.00    0.00   0.162   0.163   0.201   0.144   0.151   0.092   0.088   0.090   0.089
 1982 098   185     206     134       6      77     299       0       0       0     179    0.04     0.0     0.0    0.00    0.00   0.151   0.163   0.200   0.144   0.151   0.092   0.088   0.090   0.089
 1982 099   186     204     132       6      77     299       0       0       0     179    0.04     0.0     0.0    0.00    0.00   0.134   0.161   0.197   0.143   0.150   0.092   0.088   0.090   0.089
 1982 100   187     202     130       6      77     299       0       0       0     179    0.04     0.0     0.0    0.00    0.00   0.120   0.157   0.194   0.141   0.149   0.092   0.088   0.090   0.089
 1982 101   188     200     129       6      77     299       0       0       0     179    0.03     0.0     0.0    0.00    0.00   0.107   0.153   0.191   0.140   0.148   0.092   0.088   0.090   0.089
 1982 102   189     198     126       6      77     299       0       0       0     179    0.03     0.0     0.0    0.00    0.00   0.098   0.146   0.186   0.139   0.147   0.092   0.088   0.090   0.089
 1982 103   190     196     124       6      77     299       0       0       0     179    0.03     0.0     0.0    0.00    0.00   0.089   0.140   0.182   0.137   0.146   0.092   0.088   0.090   0.089
 1982 104   191     193     122       6      77     299       0       0       0     179    0.03     0.0     0.0    0.00    0.00   0.081   0.133   0.176   0.135   0.145   0.091   0.088   0.090   0.089
 1982 105   192     191     119       6      77     299       0       0       0     179    0.03     0.0     0.0    0.00    0.00   0.073   0.127   0.172   0.134   0.144   0.091   0.088   0.090   0.089
 1982 106   193     190     118       6      77     299       0       0       0     179    0.03     0.0     0.0    0.00    0.00   0.066   0.124   0.170   0.133   0.143   0.091   0.088   0.090   0.089
 1982 107   194     188     116       6      77     299       0       0       0     179    0.03     0.0     0.0    0.00    0.00   0.058   0.117   0.165   0.131   0.142   0.091   0.088   0.090   0.089
 1982 108   195     185     114       6      77     299       0       0       0     179    0.03     0.0     0.0    0.00    0.00   0.051   0.112   0.159   0.129   0.140   0.091   0.088   0.090   0.089
 1982 109   196     186     114       6      77     302       0       0       0     179    0.04     0.0     0.0    0.00    0.00   0.105   0.109   0.152   0.127   0.138   0.090   0.088   0.090   0.089
 1982 110   197     183     112       6      77     302       0       0       0     179    0.04     0.0     0.0    0.00    0.00   0.093   0.107   0.146   0.125   0.137   0.090   0.088   0.090   0.089
 1982 111   198     181     110       6      77     302       0       0       0     179    0.04     0.0     0.0    0.00    0.00   0.083   0.106   0.140   0.122   0.135   0.089   0.088   0.090   0.089
 1982 112   199     179     107       6      77     302       0       0       0     179    0.04     0.0     0.0    0.00    0.00   0.073   0.104   0.132   0.120   0.133   0.089   0.088   0.090   0.089
 1982 113   200     176     104       6      77     302       0       0       0     179    0.03     0.0     0.0    0.00    0.00   0.065   0.102   0.125   0.118   0.131   0.089   0.088   0.090   0.089
 1982 114   201     174     102       6      77     302       0       0       0     179    0.03     0.0     0.0    0.00    0.00   0.057   0.101   0.118   0.115   0.129   0.088   0.088   0.090   0.089
 1982 115   202     173     101       6      77     303       0       0       0     179    0.04     0.0     0.0    0.00    0.00   0.058   0.100   0.115   0.114   0.128   0.088   0.088   0.090   0.089
 1982 116   203     170      98       6      77     303       0       0       0     179    0.04     0.0     0.0    0.00    0.00   0.050   0.098   0.108   0.110   0.125   0.087   0.088   0.090   0.089
 1982 117   204     169      97       6      77     303       0       0       0     179    0.04     0.0     0.0    0.00    0.00   0.049   0.097   0.107   0.108   0.123   0.087   0.088   0.090   0.089
 1982 118   205     173     101       6      77     307       0       0       0     179    0.04     0.0     0.0    0.00    0.00   0.124   0.096   0.107   0.108   0.123   0.087   0.088   0.090   0.089
 1982 119   206     187     116       6      77     323       0       0       0     179    0.04     0.0     0.0    0.00    0.00   0.231   0.195   0.107   0.107   0.122   0.087   0.088   0.090   0.089
 1982 120   207     186     114       6      77     323       0       0       0     179    0.04     0.0     0.0    0.00    0.00   0.199   0.195   0.108   0.106   0.121   0.086   0.088   0.090   0.089
 1982 121   208     183     111       6      77     323       0       0       0     179    0.04     0.0     0.0    0.00    0.00   0.166   0.187   0.109   0.104   0.120   0.086   0.088   0.090   0.089
 1982 122   209     179     107       6      77     323       0       0       0     179    0.04     0.0     0.0    0.00    0.00   0.128   0.175   0.109   0.102   0.119   0.086   0.088   0.090   0.089
 1982 123   210     175     103       6      77     323       0       0       0     179    0.04     0.0     0.0    0.00    0.00   0.093   0.161   0.108   0.100   0.117   0.085   0.088   0.090   0.089
 1982 124   211     170      98       6      77     323       0       0       0     179    0.04     0.0     0.0    0.00    0.00   0.053   0.142   0.106   0.097   0.114   0.085   0.088   0.090   0.089
 1982 125   212     169      97       6      77     323       0       0       0     179    0.04     0.0     0.0    0.00    0.00   0.051   0.136   0.106   0.096   0.113   0.085   0.088   0.090   0.089
 1982 126   213     200     128       6      77     355       0       0       0     179    0.05     0.0     0.0    0.00    0.00   0.247   0.235   0.184   0.095   0.112   0.084   0.087   0.090   0.089
 1982 127   214     197     126       6      77     359       0       0       0     179    0.05     0.0     0.0    0.00    0.00   0.196   0.228   0.196   0.093   0.110   0.084   0.087   0.090   0.089
 1982 128   215     191     120       6      77     359       0       0       0     179    0.04     0.0     0.0    0.00    0.00   0.145   0.207   0.191   0.092   0.108   0.083   0.087   0.090   0.089
 1982 129   216     186     115       6      77     359       0       0       0     179    0.04     0.0     0.0    0.00    0.00   0.116   0.189   0.184   0.091   0.106   0.083   0.087   0.090   0.089
 1982 130   217     182     111       6      77     359       0       0       0     179    0.04     0.0     0.0    0.00    0.00   0.090   0.176   0.177   0.090   0.104   0.082   0.087   0.090   0.089
 1982 131   218     178     106       6      77     360       0       0       0     179    0.05     0.0     0.0    0.00    0.00   0.080   0.160   0.169   0.088   0.102   0.082   0.087   0.090   0.089
 1982 132   219     203     131       6      77     387       0       0       0     179    0.05     0.0     0.0    0.00    0.00   0.237   0.237   0.234   0.088   0.101   0.082   0.087   0.090   0.089
 1982 133   220     201     129       6      77     387       0       0       0     179    0.05     0.0     0.0    0.00    0.00   0.211   0.227   0.236   0.089   0.100   0.081   0.087   0.090   0.089
 1982 134   221     199     128       6      77     388       0       0       0     179    0.05     0.0     0.0    0.00    0.00   0.208   0.219   0.231   0.090   0.100   0.081   0.086   0.090   0.089
 1982 135   222     206     134       6      77     400       0       0       0     179    0.05     0.0     0.0    0.00    0.00   0.197   0.233   0.247   0.114   0.098   0.081   0.086   0.090   0.089
 1982 136   223     205     133       6      77     402       0       0       0     179    0.05     0.0     0.0    0.00    0.00   0.215   0.221   0.240   0.122   0.097   0.080   0.086   0.090   0.089
 1982 137   224     206     135       6      77     407       0       0       0     179    0.05     0.0     0.0    0.00    0.00   0.214   0.229   0.238   0.128   0.097   0.080   0.086   0.090   0.089
 1982 138   225     202     131       6      77     408       0       0       0     179    0.05     0.0     0.0    0.00    0.00   0.184   0.217   0.234   0.126   0.095   0.080   0.086   0.090   0.089
 1982 139   226     197     125       6      77     408       0       0       0     179    0.05     0.0     0.0    0.00    0.00   0.136   0.203   0.225   0.125   0.094   0.079   0.086   0.090   0.089
 1982 140   227     194     122       6      77     408       0       0       0     179    0.05     0.0     0.0    0.00    0.00   0.123   0.194   0.219   0.124   0.094   0.079   0.086   0.090   0.089
 1982 141   228     214     142       6      77     432       0       0       0     179    0.05     0.0     0.0    0.00    0.00   0.213   0.234   0.253   0.158   0.101   0.078   0.085   0.089   0.089
 1982 142   229     211     139       6      77     433       0       0       0     179    0.05     0.0     0.0    0.00    0.00   0.191   0.220   0.242   0.158   0.110   0.078   0.085   0.089   0.089
 1982 143   230     206     134       6      77     433       0       0       0     179    0.05     0.0     0.0    0.00    0.00   0.148   0.209   0.235   0.153   0.111   0.078   0.085   0.089   0.089
 1982 144   231     204     132       6      77     433       0       0       0     179    0.05     0.0     0.0    0.00    0.00   0.146   0.202   0.232   0.151   0.112   0.078   0.085   0.089   0.089
 1982 145   232     218     147       6      77     450       0       0       0     179    0.05     0.0     0.0    0.00    0.00   0.226   0.237   0.253   0.162   0.126   0.078   0.085   0.089   0.089
 1982 146   233     237     165       7      79     476       0       0       0     178    0.05     0.0     0.0    0.93    0.00   0.193   0.236   0.254   0.168   0.169   0.105   0.094   0.092   0.091
 1982 147   234     234     162       7      82     483       0       0       0     176    0.05     0.0     0.0    0.00    0.00   0.193   0.229   0.246   0.165   0.166   0.100   0.095   0.094   0.093
 1982 148   235     222     150       7      90     483       0       0       0     179    0.05     0.0     0.0    0.00    0.00   0.163   0.216   0.238   0.157   0.158   0.094   0.090   0.090   0.089
 1982 149   236     242     170       7      93     511       0       0       0     176    0.05     0.0     0.0    0.23    0.00   0.204   0.232   0.253   0.168   0.168   0.110   0.100   0.096   0.093
 1982 150   237     235     163       7      97     512       0       0       0     175    0.05     0.0     0.0    0.00    0.00   0.188   0.218   0.242   0.162   0.164   0.102   0.099   0.098   0.096
 1982 151   238     239     168       7     101     524       0       0       0     174    0.05     0.0     0.0    0.00    0.00   0.223   0.237   0.253   0.167   0.165   0.099   0.096   0.097   0.097
 1982 152   239     223     151       7     112     524       0       0       0     178    0.05     0.0     0.0    0.00    0.00   0.164   0.221   0.239   0.157   0.157   0.094   0.091   0.091   0.091
 1982 153   240     220     149       7     113     525       0       0       0     178    0.05     0.0     0.0    0.00    0.00   0.174   0.212   0.236   0.155   0.155   0.093   0.089   0.090   0.090
 1982 154   241     219     147       7     114     526       0       0       0     179    0.05     0.0     0.0    0.00    0.00   0.186   0.207   0.233   0.154   0.155   0.092   0.089   0.088   0.089
 1982 155   242     218     147       7     114     528       0       0       0     179    0.05     0.0     0.0    0.00    0.00   0.200   0.203   0.229   0.153   0.154   0.092   0.089   0.088   0.089
 1982 156   243     214     142       7     114     528       0       0       0     179    0.05     0.0     0.0    0.00    0.00   0.150   0.197   0.223   0.151   0.153   0.092   0.089   0.088   0.089
 1982 157   244     210     138       7     114     528       0       0       0     179    0.05     0.0     0.0    0.00    0.00   0.122   0.187   0.218   0.149   0.151   0.092   0.089   0.088   0.089
 1982 158   245     216     145       7     114     540       0       0       0     179    0.05     0.0     0.0    0.00    0.00   0.190   0.223   0.220   0.147   0.149   0.091   0.089   0.088   0.089
 1982 159   246     211     140       7     114     540       0       0       0     179    0.05     0.0     0.0    0.00    0.00   0.143   0.209   0.215   0.145   0.148   0.091   0.089   0.088   0.089
 1982 160   247     224     152       7     114     559       0       0       0     179    0.05     0.0     0.0    0.00    0.00   0.190   0.231   0.250   0.158   0.154   0.091   0.088   0.088   0.089
 1982 161   248     217     145       7     116     559       0       0       0     179    0.05     0.0     0.0    0.00    0.00   0.137   0.214   0.238   0.154   0.152   0.091   0.088   0.088   0.089
 1982 162   249     214     143       7     116     559       0       0       0     179    0.05     0.0     0.0    0.00    0.00   0.119   0.205   0.235   0.153   0.152   0.091   0.088   0.088   0.089
 1982 163   250     210     138       7     116     559       0       0       0     179    0.04     0.0     0.0    0.00    0.00   0.088   0.194   0.228   0.152   0.151   0.091   0.088   0.088   0.089
 1982 164   251     207     136       7     116     559       0       0       0     179    0.04     0.0     0.0    0.00    0.00   0.074   0.185   0.223   0.150   0.150   0.090   0.088   0.088   0.089
 1982 165   252     205     134       7     116     559       0       0       0     179    0.05     0.0     0.0    0.00    0.00   0.068   0.178   0.219   0.149   0.149   0.090   0.088   0.088   0.089
 1982 166   253     225     153       7     116     582       0       0       0     179    0.05     0.0     0.0    0.00    0.00   0.237   0.236   0.244   0.156   0.153   0.090   0.088   0.088   0.089
 1982 167   254     219     147       7     116     582       0       0       0     179    0.05     0.0     0.0    0.00    0.00   0.141   0.225   0.239   0.156   0.155   0.091   0.088   0.088   0.089
 1982 168   255     215     143       7     116     582       0       0       0     179    0.05     0.0     0.0    0.00    0.00   0.112   0.212   0.235   0.155   0.154   0.091   0.088   0.088   0.089
 1982 169   256     212     140       7     116     583       0       0       0     179    0.05     0.0     0.0    0.00    0.00   0.086   0.202   0.231   0.154   0.153   0.091   0.087   0.088   0.089
 1982 170   257     209     137       7     116     583       0       0       0     179    0.05     0.0     0.0    0.00    0.00   0.073   0.191   0.226   0.152   0.152   0.090   0.087   0.088   0.089
 1982 171   258     206     134       7     116     583       0       0       0     179    0.05     0.0     0.0    0.00    0.00   0.063   0.182   0.221   0.151   0.151   0.090   0.087   0.088   0.089
 1982 172   259     204     132       7     116     583       0       0       0     179    0.04     0.0     0.0    0.00    0.00   0.057   0.175   0.217   0.149   0.150   0.090   0.087   0.088   0.089
 1982 173   260     218     146       7     116     599       0       0       0     179    0.05     0.0     0.0    0.00    0.00   0.247   0.224   0.218   0.148   0.149   0.090   0.087   0.088   0.089
 1982 174   261     215     143       7     116     600       0       0       0     179    0.05     0.0     0.0    0.00    0.00   0.177   0.225   0.222   0.147   0.148   0.090   0.087   0.088   0.089

*DSSAT Cropping System Model Ver. 4.8.5.000 -release  SEP 11, 2025 14:40:06

*RUN   2        : DRYLAND  - 60 KG N/HA     CSCER048 KSAS8101    2
 MODEL          : CSCER048 - Wheat
 EXPERIMENT     : KSAS8101 WH N RESPONSE,KANSAS STATE  3FE(N)*2IR  (DSSAT3)
 DATA PATH      :
 TREATMENT  2   : DRYLAND  - 60 KG N/HA     CSCER048
  
!                                                                                                                                   Soil water content (mm3/mm3) by soil depth (cm):
!                                                                                                                                   0-5    5-15   15-30   30-45   45-60   60-90  90-120 120-150 150-180
@YEAR DOY   DAS    SWTD    SWXD    ROFC    DRNC    PREC    IR#C    IRRC   LATFC    DTWT    MWTD    TDFD    TDFC    ROFD    ROSD    SW1D    SW2D    SW3D    SW4D    SW5D    SW6D    SW7D    SW8D    SW9D
 1981 278     0     163      91       0       0       0       0       0       0     180    0.00     0.0     0.0    0.00    0.00   0.205   0.205   0.170   0.092   0.092   0.065   0.066   0.066   0.066
 1981 279     1     159      87       0       0       0       0       0       0     180    0.00     0.0     0.0    0.00    0.00   0.133   0.203   0.171   0.092   0.092   0.065   0.066   0.066   0.066
 1981 280     2     157      86       0       0       0       0       0       0     180    0.00     0.0     0.0    0.00    0.00   0.110   0.195   0.172   0.093   0.092   0.065   0.066   0.066   0.066
 1981 281     3     155      83       0       0       0       0       0       0     180    0.00     0.0     0.0    0.00    0.00   0.072   0.189   0.173   0.093   0.092   0.065   0.066   0.066   0.066
 1981 282     4     154      83       0       0       0       0       0       0     180    0.00     0.0     0.0    0.00    0.00   0.070   0.182   0.173   0.093   0.092   0.065   0.066   0.066   0.066
 1981 283     5     153      82       0       0       0       0       0       0     180    0.00     0.0     0.0    0.00    0.00   0.057   0.177   0.173   0.094   0.092   0.065   0.066   0.066   0.066
 1981 284     6     153      81       0       0       0       0       0       0     180    0.00     0.0     0.0    0.00    0.00   0.056   0.172   0.173   0.094   0.092   0.065   0.066   0.066   0.066
 1981 285     7     159      87       0       0       6       0       0       0     180    0.00     0.0     0.0    0.00    0.00   0.183   0.168   0.173   0.094   0.092   0.065   0.066   0.066   0.066
 1981 286     8     158      87       0       0       6       0       0       0     180    0.00     0.0     0.0    0.00    0.00   0.172   0.169   0.173   0.094   0.092   0.065   0.066   0.066   0.066
 1981 287     9     159      87       0       0       8       0       0       0     180    0.00     0.0     0.0    0.00    0.00   0.178   0.169   0.173   0.095   0.092   0.065   0.066   0.066   0.066
 1981 288    10     157      86       0       0       8       0       0       0     180    0.00     0.0     0.0    0.00    0.00   0.150   0.169   0.172   0.095   0.093   0.065   0.066   0.066   0.066
 1981 289    11     157      85       0       0       8       0       0       0     180    0.00     0.0     0.0    0.00    0.00   0.138   0.168   0.172   0.095   0.093   0.065   0.066   0.066   0.066
 1981 290    12     166      94       0       0      21       0       0       0     180    0.00     0.0     0.0    0.00    0.00   0.195   0.228   0.177   0.095   0.093   0.065   0.066   0.066   0.066
 1981 291    13     164      92       0       0      21       0       0       0     180    0.00     0.0     0.0    0.00    0.00   0.158   0.218   0.180   0.096   0.093   0.065   0.066   0.066   0.066
 1981 292    14     161      89       0       0      21       0       0       0     180    0.00     0.0     0.0    0.00    0.00   0.104   0.209   0.182   0.096   0.093   0.065   0.066   0.066   0.066
 1981 293    15     159      87       0       0      21       0       0       0     180    0.00     0.0     0.0    0.00    0.00   0.090   0.200   0.182   0.097   0.093   0.065   0.066   0.066   0.066
 1981 294    16     158      86       0       0      21       0       0       0     180    0.00     0.0     0.0    0.00    0.00   0.080   0.192   0.183   0.097   0.093   0.065   0.066   0.066   0.066
 1981 295    17     157      85       0       0      21       0       0       0     180    0.00     0.0     0.0    0.00    0.00   0.073   0.186   0.183   0.097   0.093   0.065   0.066   0.066   0.066
 1981 296    18     156      84       0       0      21       0       0       0     180    0.00     0.0     0.0    0.00    0.00   0.066   0.180   0.183   0.098   0.093   0.065   0.066   0.066   0.066
 1981 297    19     155      84       0       0      21       0       0       0     180    0.00     0.0     0.0    0.00    0.00   0.061   0.175   0.182   0.098   0.093   0.065   0.066   0.066   0.066
 1981 298    20     158      86       0       0      24       0       0       0     180    0.00     0.0     0.0    0.00    0.00   0.116   0.171   0.182   0.098   0.093   0.065   0.066   0.066   0.066
 1981 299    21     157      85       0       0      24       0       0       0     180    0.00     0.0     0.0    0.00    0.00   0.103   0.169   0.181   0.099   0.093   0.065   0.066   0.066   0.066
 1981 300    22     156      84       0       0      24       0       0       0     180    0.00     0.0     0.0    0.00    0.00   0.092   0.166   0.181   0.099   0.094   0.065   0.066   0.066   0.066
 1981 301    23     155      83       0       0      24       0       0       0     180    0.00     0.0     0.0    0.00    0.00   0.083   0.163   0.180   0.099   0.094   0.065   0.066   0.066   0.066
 1981 302    24     154      83       0       0      24       0       0       0     180    0.00     0.0     0.0    0.00    0.00   0.076   0.160   0.180   0.099   0.094   0.065   0.066   0.066   0.066
 1981 303    25     154      82       0       0      24       0       0       0     180    0.00     0.0     0.0    0.00    0.00   0.069   0.157   0.179   0.100   0.094   0.065   0.066   0.066   0.066
 1981 304    26     154      82       0       0      25       0       0       0     180    0.00     0.0     0.0    0.00    0.00   0.078   0.155   0.178   0.100   0.094   0.065   0.066   0.066   0.066
 1981 305    27     216     144       6       0      93       0       0       0     180    0.00     0.0     0.0    5.87    0.00   0.242   0.243   0.259   0.170   0.170   0.095   0.071   0.066   0.066
 1981 306    28     218     147       6       0      96       0       0       0     180    0.00     0.0     0.0    0.00    0.00   0.237   0.243   0.255   0.169   0.170   0.097   0.081   0.066   0.066
 1981 307    29     217     146       6       0      96       0       0       0     180    0.00     0.0     0.0    0.00    0.00   0.209   0.234   0.250   0.166   0.167   0.097   0.088   0.068   0.066
 1981 308    30     230     158       6       0     110       0       0       0     180    0.00     0.0     0.0    0.03    0.00   0.240   0.242   0.260   0.170   0.170   0.104   0.095   0.081   0.066
 1981 309    31     230     159       6       0     113       0       0       0     180    0.00     0.0     0.0    0.00    0.00   0.201   0.241   0.254   0.169   0.169   0.101   0.096   0.090   0.071
 1981 310    32     224     152       6       4     113       0       0       0     180    0.00     0.0     0.0    0.00    0.00   0.163   0.227   0.246   0.160   0.160   0.095   0.091   0.088   0.087
 1981 311    33     220     148       6       7     113       0       0       0     180    0.00     0.0     0.0    0.00    0.00   0.153   0.219   0.242   0.156   0.156   0.093   0.088   0.088   0.087
 1981 312    34     237     165       6       8     131       0       0       0     179    0.00     0.0     0.0    0.00    0.00   0.258   0.239   0.259   0.170   0.170   0.097   0.091   0.090   0.089
 1981 313    35     241     169       6      10     139       0       0       0     177    0.00     0.0     0.0    0.03    0.00   0.209   0.244   0.260   0.170   0.170   0.104   0.096   0.094   0.092
 1981 314    36     227     155       6      22     139       0       0       0     179    0.00     0.0     0.0    0.00    0.00   0.174   0.230   0.248   0.160   0.160   0.096   0.091   0.090   0.089
 1981 315    37     221     149       6      26     139       0       0       0     179    0.00     0.0     0.0    0.00    0.00   0.154   0.220   0.243   0.157   0.157   0.093   0.089   0.090   0.089
 1981 316    38     219     147       6      26     139       0       0       0     179    0.00     0.0     0.0    0.00    0.00   0.126   0.213   0.241   0.157   0.157   0.093   0.089   0.090   0.089
 1981 317    39     217     145       6      26     139       0       0       0     179    0.00     0.0     0.0    0.00    0.00   0.105   0.208   0.239   0.156   0.157   0.093   0.089   0.090   0.089
 1981 318    40     216     144       6      26     139       0       0       0     179    0.00     0.0     0.0    0.00    0.00   0.095   0.202   0.237   0.156   0.157   0.093   0.089   0.090   0.089
 1981 319    41     214     143       6      26     139       0       0       0     179    0.00     0.0     0.0    0.00    0.00   0.088   0.198   0.235   0.156   0.157   0.093   0.089   0.090   0.089
 1981 320    42     213     142       6      26     139       0       0       0     179    0.00     0.0     0.0    0.00    0.00   0.083   0.194   0.233   0.156   0.157   0.093   0.089   0.090   0.089
 1981 321    43     212     141       6      26     139       0       0       0     179    0.00     0.0     0.0    0.00    0.00   0.079   0.190   0.230   0.155   0.157   0.093   0.089   0.090   0.089
 1981 322    44     212     140       6      26     139       0       0       0     179    0.00     0.0     0.0    0.00    0.00   0.076   0.187   0.228   0.155   0.157   0.093   0.089   0.090   0.089
 1981 323    45     211     139       6      26     139       0       0       0     179    0.00     0.0     0.0    0.00    0.00   0.080   0.184   0.227   0.154   0.157   0.093   0.089   0.090   0.089
 1981 324    46     210     139       6      26     139       0       0       0     179    0.00     0.0     0.0    0.00    0.00   0.077   0.182   0.225   0.154   0.157   0.093   0.089   0.090   0.089
 1981 325    47     210     138       6      26     139       0       0       0     179    0.00     0.0     0.0    0.00    0.00   0.074   0.179   0.223   0.153   0.157   0.093   0.089   0.090   0.089
 1981 326    48     209     137       6      26     139       0       0       0     179    0.00     0.0     0.0    0.00    0.00   0.071   0.177   0.221   0.153   0.156   0.093   0.089   0.090   0.089
 1981 327    49     208     137       6      26     139       0       0       0     179    0.00     0.0     0.0    0.00    0.00   0.069   0.175   0.220   0.152   0.156   0.093   0.089   0.090   0.089
 1981 328    50     208     136       6      26     139       0       0       0     179    0.00     0.0     0.0    0.00    0.00   0.067   0.173   0.218   0.151   0.156   0.093   0.089   0.090   0.089
 1981 329    51     207     135       6      26     139       0       0       0     179    0.00     0.0     0.0    0.00    0.00   0.065   0.171   0.216   0.151   0.156   0.093   0.089   0.090   0.089
 1981 330    52     206     135       6      26     139       0       0       0     179    0.00     0.0     0.0    0.00    0.00   0.063   0.169   0.215   0.150   0.156   0.093   0.089   0.090   0.089
 1981 331    53     206     134       6      26     139       0       0       0     179    0.00     0.0     0.0    0.00    0.00   0.061   0.168   0.214   0.150   0.156   0.093   0.089   0.090   0.089
 1981 332    54     205     134       6      26     139       0       0       0     179    0.00     0.0     0.0    0.00    0.00   0.059   0.166   0.212   0.149   0.156   0.093   0.089   0.090   0.089
 1981 333    55     205     133       6      26     139       0       0       0     179    0.00     0.0     0.0    0.00    0.00   0.057   0.165   0.211   0.149   0.156   0.093   0.089   0.090   0.089
 1981 334    56     224     152       6      26     158       0       0       0     179    0.00     0.0     0.0    0.00    0.00   0.253   0.239   0.225   0.148   0.156   0.093   0.089   0.090   0.089
 1981 335    57     235     163       6      27     171       0       0       0     178    0.00     0.0     0.0    0.23    0.00   0.242   0.243   0.261   0.170   0.164   0.095   0.090   0.090   0.090
 1981 336    58     227     155       6      33     171       0       0       0     178    0.00     0.0     0.0    0.00    0.00   0.208   0.232   0.248   0.160   0.158   0.093   0.090   0.090   0.090
 1981 337    59     223     152       6      36     171       0       0       0     178    0.00     0.0     0.0    0.00    0.00   0.183   0.224   0.243   0.156   0.156   0.093   0.090   0.090   0.090
 1981 338    60     222     150       6      36     171       0       0       0     178    0.00     0.0     0.0    0.00    0.00   0.165   0.219   0.242   0.156   0.156   0.093   0.090   0.090   0.090
 1981 339    61     221     149       6      36     171       0       0       0     178    0.00     0.0     0.0    0.00    0.00   0.167   0.214   0.240   0.156   0.156   0.093   0.090   0.090   0.090
 1981 340    62     220     149       6      36     171       0       0       0     178    0.00     0.0     0.0    0.00    0.00   0.162   0.210   0.239   0.156   0.156   0.093   0.090   0.090   0.090
 1981 341    63     218     147       6      36     171       0       0       0     178    0.00     0.0     0.0    0.00    0.00   0.139   0.207   0.237   0.156   0.156   0.093   0.090   0.090   0.090
 1981 342    64     217     145       6      36     171       0       0       0     178    0.00     0.0     0.0    0.00    0.00   0.128   0.203   0.235   0.156   0.156   0.093   0.090   0.090   0.090
 1981 343    65     216     144       6      36     171       0       0       0     178    0.00     0.0     0.0    0.00    0.00   0.116   0.199   0.233   0.155   0.156   0.093   0.090   0.090   0.090
 1981 344    66     216     144       6      36     171       0       0       0     178    0.00     0.0     0.0    0.00    0.00   0.124   0.196   0.232   0.155   0.156   0.093   0.090   0.090   0.090
 1981 345    67     216     144       6      36     171       0       0       0     178    0.00     0.0     0.0    0.00    0.00   0.131   0.194   0.230   0.155   0.156   0.093   0.090   0.090   0.090
 1981 346    68     215     144       6      36     171       0       0       0     178    0.00     0.0     0.0    0.00    0.00   0.137   0.192   0.229   0.154   0.156   0.093   0.090   0.090   0.090
 1981 347    69     215     144       6      36     171       0       0       0     178    0.00     0.0     0.0    0.00    0.00   0.142   0.190   0.228   0.154   0.156   0.093   0.090   0.090   0.090
 1981 348    70     215     143       6      36     172       0       0       0     178    0.00     0.0     0.0    0.00    0.00   0.147   0.189   0.226   0.153   0.156   0.093   0.090   0.090   0.090
 1981 349    71     215     143       6      36     172       0       0       0     178    0.00     0.0     0.0    0.00    0.00   0.148   0.188   0.225   0.153   0.155   0.093   0.090   0.090   0.090
 1981 350    72     215     143       6      36     172       0       0       0     178    0.00     0.0     0.0    0.00    0.00   0.153   0.188   0.224   0.152   0.155   0.093   0.090   0.090   0.090
 1981 351    73     215     143       6      36     176       0       0       0     178    0.00     0.0     0.0    0.00    0.00   0.157   0.187   0.223   0.152   0.155   0.093   0.090   0.090   0.090
 1981 352    74     215     143       6      36     176       0       0       0     178    0.00     0.0     0.0    0.00    0.00   0.161   0.187   0.222   0.151   0.155   0.093   0.090   0.090   0.090
 1981 353    75     215     143       6      36     176       0       0       0     178    0.01     0.0     0.0    0.00    0.00   0.163   0.187   0.221   0.151   0.155   0.093   0.090   0.090   0.090
 1981 354    76     217     145       6      36     176       0       0       0     178    0.03     0.0     0.0    0.00    0.00   0.218   0.187   0.221   0.151   0.155   0.093   0.090   0.090   0.090
 1981 355    77     219     147       6      36     177       0       0       0     178    0.03     0.0     0.0    0.00    0.00   0.232   0.201   0.220   0.150   0.155   0.093   0.090   0.090   0.090
 1981 356    78     219     147       6      36     177       0       0       0     178    0.03     0.0     0.0    0.00    0.00   0.218   0.207   0.220   0.150   0.155   0.093   0.090   0.090   0.090
 1981 357    79     218     146       6      36     177       0       0       0     178    0.03     0.0     0.0    0.00    0.00   0.190   0.208   0.221   0.150   0.155   0.093   0.090   0.090   0.090
 1981 358    80     216     145       6      36     177       0       0       0     178    0.03     0.0     0.0    0.00    0.00   0.167   0.206   0.221   0.149   0.155   0.093   0.090   0.090   0.090
 1981 359    81     215     144       6      36     177       0       0       0     178    0.03     0.0     0.0    0.00    0.00   0.155   0.203   0.221   0.149   0.154   0.093   0.090   0.090   0.090
 1981 360    82     215     143       6      36     177       0       0       0     178    0.03     0.0     0.0    0.00    0.00   0.152   0.199   0.221   0.149   0.154   0.093   0.090   0.090   0.090
 1981 361    83     215     143       6      36     177       0       0       0     178    0.03     0.0     0.0    0.00    0.00   0.157   0.196   0.220   0.149   0.154   0.093   0.090   0.090   0.090
 1981 362    84     214     143       6      36     177       0       0       0     178    0.03     0.0     0.0    0.00    0.00   0.158   0.194   0.220   0.148   0.154   0.093   0.090   0.090   0.090
 1981 363    85     214     142       6      36     177       0       0       0     178    0.03     0.0     0.0    0.00    0.00   0.152   0.193   0.219   0.148   0.154   0.093   0.090   0.090   0.090
 1981 364    86     213     141       6      36     177       0       0       0     178    0.03     0.0     0.0    0.00    0.00   0.141   0.191   0.219   0.148   0.154   0.093   0.090   0.090   0.090
 1981 365    87     212     140       6      36     177       0       0       0     178    0.03     0.0     0.0    0.00    0.00   0.132   0.189   0.218   0.148   0.153   0.093   0.090   0.090   0.090
 1982 001    88     212     140       6      36     177       0       0       0     178    0.03     0.0     0.0    0.00    0.00   0.139   0.187   0.218   0.147   0.153   0.093   0.090   0.090   0.090
 1982 002    89     214     142       6      36     179       0       0       0     178    0.03     0.0     0.0    0.00    0.00   0.182   0.185   0.217   0.147   0.153   0.093   0.090   0.090   0.090
 1982 003    90     214     142       6      36     180       0       0       0     178    0.03     0.0     0.0    0.00    0.00   0.182   0.186   0.216   0.147   0.153   0.093   0.090   0.090   0.090
 1982 004    91     219     147       6      36     184       0       0       0     178    0.03     0.0     0.0    0.00    0.00   0.236   0.210   0.216   0.147   0.153   0.093   0.090   0.090   0.090
 1982 005    92     217     146       6      36     184       0       0       0     178    0.03     0.0     0.0    0.00    0.00   0.198   0.215   0.217   0.146   0.153   0.093   0.090   0.090   0.090
 1982 006    93     217     146       6      36     184       0       0       0     178    0.03     0.0     0.0    0.00    0.00   0.202   0.212   0.218   0.146   0.152   0.093   0.090   0.090   0.090
 1982 007    94     217     145       6      36     184       0       0       0     178    0.03     0.0     0.0    0.00    0.00   0.202   0.210   0.218   0.146   0.152   0.093   0.090   0.090   0.090
 1982 008    95     216     144       6      36     184       0       0       0     178    0.03     0.0     0.0    0.00    0.00   0.184   0.209   0.219   0.146   0.152   0.093   0.090   0.090   0.090
 1982 009    96     216     144       6      36     184       0       0       0     178    0.03     0.0     0.0    0.00    0.00   0.186   0.206   0.219   0.146   0.152   0.093   0.090   0.090   0.090
 1982 010    97     216     144       6      36     184       0       0       0     178    0.03     0.0     0.0    0.00    0.00   0.190   0.204   0.219   0.146   0.152   0.093   0.090   0.090   0.090
 1982 011    98     216     144       6      36     184       0       0       0     178    0.03     0.0     0.0    0.00    0.00   0.192   0.203   0.219   0.146   0.152   0.092   0.090   0.090   0.090
 1982 012    99     216     144       6      36     184       0       0       0     178    0.03     0.0     0.0    0.00    0.00   0.193   0.202   0.219   0.146   0.152   0.092   0.090   0.090   0.090
 1982 013   100     216     144       6      36     187       0       0       0     178    0.03     0.0     0.0    0.00    0.00   0.194   0.201   0.219   0.145   0.151   0.092   0.090   0.090   0.090
 1982 014   101     217     146       6      36     187       0       0       0     178    0.04     0.0     0.0    0.00    0.00   0.212   0.208   0.219   0.145   0.151   0.092   0.090   0.090   0.090
 1982 015   102     216     145       6      36     187       0       0       0     178    0.04     0.0     0.0    0.00    0.00   0.194   0.208   0.219   0.145   0.151   0.092   0.090   0.090   0.090
 1982 016   103     216     145       6      36     187       0       0       0     178    0.04     0.0     0.0    0.00    0.00   0.196   0.206   0.220   0.145   0.151   0.092   0.090   0.090   0.090
 1982 017   104     216     144       6      36     187       0       0       0     178    0.03     0.0     0.0    0.00    0.00   0.193   0.205   0.220   0.145   0.151   0.092   0.090   0.090   0.090
 1982 018   105     215     143       6      36     187       0       0       0     178    0.03     0.0     0.0    0.00    0.00   0.170   0.204   0.220   0.145   0.151   0.092   0.090   0.090   0.090
 1982 019   106     214     142       6      36     187       0       0       0     178    0.03     0.0     0.0    0.00    0.00   0.156   0.201   0.220   0.145   0.151   0.092   0.090   0.090   0.090
 1982 020   107     214     142       6      36     187       0       0       0     178    0.03     0.0     0.0    0.00    0.00   0.163   0.198   0.219   0.145   0.150   0.092   0.090   0.090   0.090
 1982 021   108     214     142       6      36     187       0       0       0     178    0.03     0.0     0.0    0.00    0.00   0.168   0.196   0.219   0.145   0.150   0.092   0.090   0.090   0.090
 1982 022   109     215     143       6      36     189       0       0       0     178    0.04     0.0     0.0    0.00    0.00   0.204   0.195   0.218   0.145   0.150   0.092   0.090   0.090   0.090
 1982 023   110     215     143       6      36     200       0       0       0     178    0.04     0.0     0.0    0.00    0.00   0.200   0.197   0.218   0.145   0.150   0.092   0.090   0.090   0.090
 1982 024   111     215     143       6      36     200       0       0       0     178    0.04     0.0     0.0    0.00    0.00   0.194   0.198   0.218   0.144   0.150   0.092   0.090   0.090   0.090
 1982 025   112     219     148       6      36     200       0       0       0     178    0.04     0.0     0.0    0.00    0.00   0.227   0.227   0.218   0.144   0.150   0.092   0.090   0.090   0.090
 1982 026   113     223     152       6      36     200       0       0       0     178    0.04     0.0     0.0    0.00    0.00   0.215   0.243   0.239   0.144   0.150   0.092   0.090   0.090   0.090
 1982 027   114     222     150       6      36     200       0       0       0     178    0.04     0.0     0.0    0.00    0.00   0.182   0.230   0.240   0.151   0.150   0.092   0.090   0.090   0.090
 1982 028   115     220     149       6      36     200       0       0       0     178    0.04     0.0     0.0    0.00    0.00   0.166   0.221   0.240   0.153   0.150   0.092   0.090   0.090   0.090
 1982 029   116     220     148       6      36     200       0       0       0     178    0.03     0.0     0.0    0.00    0.00   0.176   0.216   0.239   0.153   0.150   0.092   0.090   0.090   0.090
 1982 030   117     225     153       6      36     206       0       0       0     178    0.04     0.0     0.0    0.00    0.00   0.249   0.224   0.240   0.153   0.150   0.092   0.090   0.090   0.090
 1982 031   118     225     153       6      36     206       0       0       0     178    0.04     0.0     0.0    0.00    0.00   0.232   0.225   0.240   0.154   0.153   0.092   0.090   0.090   0.090
 1982 032   119     224     152       6      36     206       0       0       0     178    0.04     0.0     0.0    0.00    0.00   0.220   0.225   0.240   0.154   0.154   0.092   0.090   0.090   0.090
 1982 033   120     224     152       6      36     206       0       0       0     178    0.03     0.0     0.0    0.00    0.00   0.219   0.224   0.240   0.154   0.154   0.092   0.090   0.090   0.090
 1982 034   121     224     152       6      36     207       0       0       0     178    0.03     0.0     0.0    0.00    0.00   0.219   0.224   0.240   0.154   0.154   0.092   0.090   0.090   0.090
 1982 035   122     224     152       6      36     207       0       0       0     178    0.03     0.0     0.0    0.00    0.00   0.221   0.223   0.240   0.154   0.154   0.092   0.090   0.090   0.090
 1982 036   123     224     152       6      36     213       0       0       0     178    0.03     0.0     0.0    0.00    0.00   0.221   0.223   0.240   0.154   0.154   0.092   0.090   0.090   0.090
 1982 037   124     224     152       6      36     213       0       0       0     178    0.03     0.0     0.0    0.00    0.00   0.218   0.223   0.239   0.154   0.154   0.092   0.090   0.090   0.090
 1982 038   125     225     153       6      36     213       0       0       0     178    0.04     0.0     0.0    0.00    0.00   0.227   0.228   0.242   0.154   0.154   0.092   0.090   0.090   0.090
 1982 039   126     225     153       6      36     213       0       0       0     178    0.04     0.0     0.0    0.00    0.00   0.226   0.228   0.242   0.154   0.154   0.092   0.090   0.090   0.090
 1982 040   127     225     153       6      36     222       0       0       0     178    0.04     0.0     0.0    0.00    0.00   0.225   0.228   0.242   0.154   0.154   0.092   0.090   0.090   0.090
[...]
 1982 076   163     222     151       6      67     271       0       0       0     179    0.04     0.0     0.0    0.00    0.00   0.130   0.225   0.247   0.160   0.160   0.094   0.089   0.089   0.088
 1982 077   164     220     148       6      69     271       0       0       0     179    0.04     0.0     0.0    0.00    0.00   0.142   0.217   0.242   0.157   0.157   0.094   0.089   0.089   0.088
 1982 078   165     231     159       6      70     286       0       0       0     179    0.04     0.0     0.0    0.00    0.00   0.193   0.239   0.258   0.168   0.163   0.095   0.090   0.090   0.089
 1982 079   166     222     151       6      75     286       0       0       0     179    0.04     0.0     0.0    0.00    0.00   0.145   0.225   0.247   0.160   0.158   0.093   0.088   0.090   0.089
 1982 080   167     218     146       6      77     286       0       0       0     179    0.04     0.0     0.0    0.00    0.00   0.114   0.217   0.241   0.156   0.155   0.093   0.088   0.090   0.089
 1982 081   168     217     145       6      77     286       0       0       0     179    0.03     0.0     0.0    0.00    0.00   0.103   0.210   0.239   0.156   0.155   0.093   0.088   0.090   0.089
 1982 082   169     215     144       6      77     286       0       0       0     179    0.03     0.0     0.0    0.00    0.00   0.096   0.204   0.237   0.156   0.155   0.093   0.088   0.090   0.089
 1982 083   170     214     142       6      77     286       0       0       0     179    0.03     0.0     0.0    0.00    0.00   0.092   0.199   0.235   0.155   0.155   0.093   0.088   0.090   0.089
 1982 084   171     216     144       6      77     291       0       0       0     179    0.04     0.0     0.0    0.00    0.00   0.146   0.194   0.232   0.155   0.155   0.093   0.088   0.090   0.089
 1982 085   172     214     143       6      77     291       0       0       0     179    0.04     0.0     0.0    0.00    0.00   0.131   0.192   0.229   0.154   0.155   0.093   0.088   0.090   0.089
 1982 086   173     213     142       6      77     291       0       0       0     179    0.04     0.0     0.0    0.00    0.00   0.120   0.189   0.227   0.154   0.155   0.093   0.088   0.090   0.089
 1982 087   174     212     140       6      77     291       0       0       0     179    0.03     0.0     0.0    0.00    0.00   0.112   0.187   0.225   0.153   0.155   0.093   0.088   0.090   0.089
 1982 088   175     211     140       6      77     291       0       0       0     179    0.03     0.0     0.0    0.00    0.00   0.106   0.184   0.224   0.153   0.155   0.093   0.088   0.090   0.089
 1982 089   176     211     139       6      77     292       0       0       0     179    0.04     0.0     0.0    0.00    0.00   0.120   0.180   0.220   0.152   0.155   0.093   0.088   0.090   0.089
 1982 090   177     209     138       6      77     292       0       0       0     179    0.04     0.0     0.0    0.00    0.00   0.111   0.177   0.217   0.151   0.155   0.093   0.088   0.090   0.089
 1982 091   178     208     136       6      77     292       0       0       0     179    0.04     0.0     0.0    0.00    0.00   0.104   0.172   0.213   0.150   0.154   0.093   0.088   0.090   0.089
 1982 092   179     206     135       6      77     292       0       0       0     179    0.03     0.0     0.0    0.00    0.00   0.098   0.168   0.209   0.149   0.154   0.093   0.088   0.090   0.089
 1982 093   180     205     133       6      77     292       0       0       0     179    0.03     0.0     0.0    0.00    0.00   0.092   0.163   0.205   0.148   0.153   0.093   0.088   0.090   0.089
 1982 094   181     203     132       6      77     292       0       0       0     179    0.03     0.0     0.0    0.00    0.00   0.086   0.159   0.202   0.147   0.153   0.092   0.088   0.090   0.089
 1982 095   182     209     137       6      77     299       0       0       0     179    0.04     0.0     0.0    0.00    0.00   0.205   0.156   0.200   0.146   0.153   0.092   0.088   0.090   0.089
 1982 096   183     248     176       6      81     299       1      46       0     175    0.04     0.0     0.0    0.00    0.00   0.208   0.248   0.258   0.169   0.170   0.111   0.106   0.099   0.095
 1982 097   184     231     159       6      97     299       1      46       0     178    0.04     0.0     0.0    0.00    0.00   0.203   0.231   0.247   0.160   0.160   0.099   0.095   0.092   0.090
 1982 098   185     228     156       6      99     299       1      46       0     177    0.04     0.0     0.0    0.00    0.00   0.200   0.222   0.242   0.158   0.159   0.096   0.093   0.092   0.092
 1982 099   186     219     148       6     104     299       1      46       0     179    0.04     0.0     0.0    0.00    0.00   0.151   0.215   0.238   0.155   0.156   0.093   0.089   0.089   0.089
 1982 100   187     215     144       6     104     299       1      46       0     179    0.04     0.0     0.0    0.00    0.00   0.102   0.206   0.233   0.154   0.155   0.093   0.089   0.089   0.089
 1982 101   188     212     140       6     104     299       1      46       0     179    0.04     0.0     0.0    0.00    0.00   0.084   0.196   0.228   0.153   0.155   0.093   0.089   0.089   0.089
 1982 102   189     209     137       6     104     299       1      46       0     179    0.03     0.0     0.0    0.00    0.00   0.073   0.185   0.220   0.152   0.154   0.093   0.089   0.089   0.089
 1982 103   190     206     134       6     104     299       1      46       0     179    0.03     0.0     0.0    0.00    0.00   0.064   0.175   0.213   0.150   0.153   0.093   0.089   0.089   0.089
 1982 104   191     203     131       6     104     299       1      46       0     179    0.03     0.0     0.0    0.00    0.00   0.056   0.165   0.205   0.148   0.152   0.092   0.089   0.089   0.089
 1982 105   192     201     129       6     104     299       1      46       0     179    0.03     0.0     0.0    0.00    0.00   0.054   0.157   0.198   0.146   0.151   0.092   0.089   0.089   0.089
 1982 106   193     199     128       6     104     299       1      46       0     179    0.03     0.0     0.0    0.00    0.00   0.053   0.153   0.195   0.145   0.150   0.092   0.089   0.089   0.089
 1982 107   194     197     125       6     104     299       1      46       0     179    0.03     0.0     0.0    0.00    0.00   0.053   0.144   0.187   0.143   0.149   0.092   0.089   0.089   0.089
 1982 108   195     194     122       6     104     299       1      46       0     179    0.03     0.0     0.0    0.00    0.00   0.052   0.135   0.178   0.140   0.147   0.092   0.089   0.089   0.089
 1982 109   196     194     122       6     104     302       1      46       0     179    0.04     0.0     0.0    0.00    0.00   0.107   0.126   0.170   0.138   0.146   0.092   0.089   0.089   0.089
 1982 110   197     242     170       6     106     302       2     100       0     177    0.04     0.0     0.0    0.00    0.00   0.217   0.238   0.253   0.168   0.169   0.109   0.099   0.095   0.093
 1982 111   198     226     154       6     118     302       2     100       0     179    0.04     0.0     0.0    0.00    0.00   0.186   0.222   0.239   0.158   0.158   0.098   0.092   0.090   0.089
 1982 112   199     217     146       6     122     302       2     100       0     179    0.04     0.0     0.0    0.00    0.00   0.155   0.211   0.230   0.154   0.154   0.094   0.089   0.088   0.089
 1982 113   200     214     142       6     122     302       2     100       0     179    0.04     0.0     0.0    0.00    0.00   0.141   0.199   0.222   0.151   0.152   0.093   0.089   0.088   0.089
 1982 114   201     210     138       6     122     302       2     100       0     179    0.03     0.0     0.0    0.00    0.00   0.117   0.189   0.214   0.149   0.151   0.093   0.089   0.088   0.089
 1982 115   202     208     136       6     122     303       2     100       0     179    0.04     0.0     0.0    0.00    0.00   0.119   0.182   0.210   0.147   0.149   0.093   0.089   0.088   0.089
 1982 116   203     203     131       6     122     303       2     100       0     179    0.04     0.0     0.0    0.00    0.00   0.090   0.171   0.200   0.144   0.147   0.092   0.089   0.088   0.089
 1982 117   204     247     176       6     125     303       3     149       0     176    0.04     0.0     0.0    0.00    0.00   0.247   0.240   0.257   0.169   0.169   0.111   0.103   0.097   0.094
 1982 118   205     246     175       6     130     307       3     149       0     174    0.04     0.0     0.0    0.00    0.00   0.246   0.245   0.255   0.169   0.169   0.103   0.101   0.100   0.097
 1982 119   206     254     182       6     137     323       3     149       0     171    0.04     0.0     0.0    0.20    0.00   0.240   0.243   0.258   0.169   0.169   0.111   0.107   0.106   0.103
 1982 120   207     245     173       6     144     323       3     149       0     170    0.05     0.0     0.0    0.00    0.00   0.221   0.231   0.247   0.166   0.167   0.103   0.102   0.104   0.103
 1982 121   208     228     156       6     158     323       3     149       0     176    0.04     0.0     0.0    0.00    0.00   0.205   0.222   0.237   0.157   0.158   0.096   0.093   0.094   0.094
 1982 122   209     219     148       6     163     323       3     149       0     178    0.04     0.0     0.0    0.00    0.00   0.187   0.213   0.230   0.153   0.153   0.092   0.089   0.090   0.090
 1982 123   210     215     143       6     163     323       3     149       0     178    0.04     0.0     0.0    0.00    0.00   0.167   0.202   0.220   0.150   0.151   0.092   0.089   0.090   0.090
 1982 124   211     209     138       6     163     323       3     149       0     178    0.04     0.0     0.0    0.00    0.00   0.143   0.189   0.209   0.147   0.147   0.091   0.089   0.090   0.090
 1982 125   212     208     137       6     163     323       3     149       0     178    0.04     0.0     0.0    0.00    0.00   0.144   0.184   0.207   0.146   0.147   0.091   0.089   0.090   0.090
 1982 126   213     237     165       7     165     355       3     149       0     178    0.05     0.0     0.0    0.17    0.00   0.241   0.238   0.255   0.168   0.168   0.099   0.093   0.091   0.091
 1982 127   214     232     161       7     167     359       3     149       0     177    0.05     0.0     0.0    0.00    0.00   0.222   0.231   0.242   0.164   0.164   0.098   0.093   0.093   0.092
 1982 128   215     220     148       7     174     359       3     149       0     179    0.05     0.0     0.0    0.00    0.00   0.194   0.214   0.229   0.155   0.154   0.093   0.089   0.089   0.089
 1982 129   216     214     143       7     174     359       3     149       0     179    0.05     0.0     0.0    0.00    0.00   0.173   0.200   0.218   0.151   0.151   0.092   0.089   0.089   0.089
 1982 130   217     210     139       7     174     359       3     149       0     179    0.05     0.0     0.0    0.00    0.00   0.160   0.190   0.209   0.148   0.148   0.092   0.089   0.089   0.089
 1982 131   218     206     135       7     174     360       3     149       0     179    0.06     0.0     0.0    0.00    0.00   0.161   0.177   0.199   0.144   0.145   0.091   0.089   0.089   0.089
 1982 132   219     231     159       7     174     387       3     149       0     179    0.06     0.0     0.0    0.00    0.00   0.240   0.240   0.256   0.167   0.158   0.092   0.088   0.089   0.089
 1982 133   220     228     156       7     175     387       3     149       0     179    0.06     0.0     0.0    0.00    0.00   0.224   0.228   0.245   0.163   0.161   0.094   0.089   0.089   0.089
 1982 134   221     225     153       7     176     388       3     149       0     179    0.06     0.0     0.0    0.00    0.00   0.221   0.223   0.238   0.158   0.158   0.094   0.089   0.089   0.089
 1982 135   222     230     158       7     178     400       3     149       0     178    0.06     0.0     0.0    0.00    0.00   0.222   0.233   0.249   0.166   0.161   0.095   0.090   0.090   0.090
 1982 136   223     228     157       7     179     402       3     149       0     178    0.06     0.0     0.0    0.00    0.00   0.231   0.226   0.241   0.161   0.161   0.095   0.090   0.090   0.090
 1982 137   224     228     156       7     180     407       3     149       0     178    0.06     0.0     0.0    0.00    0.00   0.230   0.234   0.240   0.159   0.159   0.094   0.090   0.090   0.090
 1982 138   225     223     151       7     182     408       3     149       0     178    0.06     0.0     0.0    0.00    0.00   0.216   0.221   0.232   0.155   0.155   0.093   0.090   0.090   0.090
 1982 139   226     216     145       7     183     408       3     149       0     179    0.05     0.0     0.0    0.00    0.00   0.189   0.208   0.222   0.152   0.152   0.092   0.089   0.088   0.088
 1982 140   227     213     142       7     183     408       3     149       0     179    0.05     0.0     0.0    0.00    0.00   0.177   0.200   0.216   0.149   0.150   0.092   0.089   0.088   0.088
 1982 141   228     232     160       7     184     432       3     149       0     179    0.06     0.0     0.0    0.02    0.00   0.229   0.234   0.252   0.167   0.166   0.095   0.090   0.090   0.089
 1982 142   229     228     156       7     185     433       3     149       0     178    0.06     0.0     0.0    0.00    0.00   0.214   0.223   0.240   0.161   0.163   0.095   0.091   0.091   0.090
 1982 143   230     219     147       7     189     433       3     149       0     179    0.05     0.0     0.0    0.00    0.00   0.190   0.212   0.230   0.154   0.155   0.092   0.088   0.088   0.088
 1982 144   231     217     145       7     189     433       3     149       0     179    0.05     0.0     0.0    0.00    0.00   0.185   0.206   0.227   0.153   0.153   0.092   0.088   0.088   0.088
 1982 145   232     230     159       7     190     450       3     149       0     179    0.06     0.0     0.0    0.00    0.00   0.236   0.237   0.254   0.165   0.160   0.093   0.089   0.089   0.089
 1982 146   233     246     175       8     194     476       3     149       0     174    0.06     0.0     0.0    1.00    0.00   0.220   0.234   0.250   0.167   0.167   0.110   0.107   0.101   0.096
 1982 147   234     241     169       8     200     483       3     149       0     173    0.06     0.0     0.0    0.00    0.00   0.216   0.232   0.243   0.165   0.164   0.102   0.102   0.102   0.099
 1982 148   235     226     154       8     212     483       3     149       0     177    0.05     0.0     0.0    0.00    0.00   0.199   0.219   0.236   0.156   0.156   0.095   0.093   0.093   0.092
 1982 149   236     244     173       8     216     511       3     149       0     175    0.06     0.0     0.0    0.54    0.00   0.224   0.232   0.250   0.167   0.167   0.110   0.102   0.099   0.096
 1982 150   237     236     165       8     221     512       3     149       0     173    0.06     0.0     0.0    0.00    0.00   0.212   0.222   0.239   0.161   0.162   0.101   0.099   0.099   0.098
 1982 151   238     241     169       8     226     524       3     149       0     174    0.06     0.0     0.0    0.00    0.00   0.234   0.238   0.254   0.167   0.165   0.098   0.097   0.098   0.098
 1982 152   239     224     152       8     237     524       3     149       0     177    0.05     0.0     0.0    0.00    0.00   0.197   0.219   0.236   0.156   0.155   0.093   0.091   0.091   0.091
 1982 153   240     221     150       8     238     525       3     149       0     178    0.06     0.0     0.0    0.00    0.00   0.211   0.212   0.231   0.155   0.154   0.093   0.088   0.090   0.090
 1982 154   241     220     148       8     239     526       3     149       0     179    0.06     0.0     0.0    0.00    0.00   0.219   0.211   0.229   0.154   0.153   0.093   0.088   0.090   0.088
 1982 155   242     220     148       8     239     528       3     149       0     179    0.06     0.0     0.0    0.00    0.00   0.223   0.218   0.224   0.152   0.152   0.093   0.088   0.090   0.088
 1982 156   243     215     143       8     239     528       3     149       0     179    0.05     0.0     0.0    0.00    0.00   0.194   0.209   0.216   0.149   0.149   0.092   0.088   0.089   0.088
 1982 157   244     211     139       8     239     528       3     149       0     179    0.05     0.0     0.0    0.00    0.00   0.168   0.198   0.209   0.147   0.147   0.092   0.088   0.089   0.088
 1982 158   245     217     145       8     239     540       3     149       0     179    0.06     0.0     0.0    0.00    0.00   0.216   0.231   0.223   0.143   0.144   0.091   0.087   0.089   0.088
 1982 159   246     212     140       8     239     540       3     149       0     179    0.05     0.0     0.0    0.00    0.00   0.185   0.215   0.218   0.141   0.141   0.090   0.087   0.089   0.088
 1982 160   247     225     153       8     239     559       3     149       0     179    0.06     0.0     0.0    0.00    0.00   0.215   0.230   0.251   0.162   0.154   0.090   0.087   0.089   0.088
 1982 161   248     217     146       8     240     559       3     149       0     179    0.05     0.0     0.0    0.00    0.00   0.174   0.214   0.234   0.154   0.151   0.090   0.087   0.089   0.088
 1982 162   249     215     143       8     240     559       3     149       0     179    0.05     0.0     0.0    0.00    0.00   0.164   0.206   0.230   0.153   0.150   0.090   0.087   0.089   0.088
 1982 163   250     210     139       8     240     559       3     149       0     179    0.05     0.0     0.0    0.00    0.00   0.138   0.195   0.221   0.150   0.148   0.090   0.086   0.089   0.088
 1982 164   251     207     135       8     240     559       3     149       0     179    0.05     0.0     0.0    0.00    0.00   0.116   0.186   0.215   0.148   0.146   0.089   0.086   0.089   0.088
 1982 165   252     204     132       8     240     559       3     149       0     179    0.06     0.0     0.0    0.00    0.00   0.107   0.177   0.209   0.146   0.144   0.089   0.086   0.089   0.088
 1982 166   253     221     150       8     240     582       3     149       0     179    0.06     0.0     0.0    0.00    0.00   0.214   0.234   0.243   0.155   0.147   0.088   0.086   0.089   0.088
 1982 167   254     215     144       8     240     582       3     149       0     179    0.06     0.0     0.0    0.00    0.00   0.165   0.217   0.234   0.153   0.147   0.088   0.085   0.089   0.088
 1982 168   255     211     139       8     240     582       3     149       0     179    0.05     0.0     0.0    0.00    0.00   0.138   0.205   0.227   0.151   0.146   0.087   0.085   0.089   0.088
 1982 169   256     208     136       8     240     583       3     149       0     179    0.06     0.0     0.0    0.00    0.00   0.122   0.196   0.221   0.149   0.144   0.087   0.085   0.089   0.088
 1982 170   257     203     131       8     240     583       3     149       0     179    0.05     0.0     0.0    0.00    0.00   0.085   0.185   0.214   0.147   0.142   0.087   0.085   0.089   0.088
 1982 171   258     199     127       8     240     583       3     149       0     179    0.05     0.0     0.0    0.00    0.00   0.068   0.173   0.206   0.144   0.140   0.086   0.085   0.089   0.088
 1982 172   259     195     124       8     240     583       3     149       0     179    0.05     0.0     0.0    0.00    0.00   0.055   0.164   0.199   0.142   0.139   0.086   0.085   0.089   0.088
 1982 173   260     209     137       8     240     599       3     149       0     179    0.06     0.0     0.0    0.00    0.00   0.247   0.219   0.192   0.139   0.137   0.085   0.084   0.089   0.088
 1982 174   261     206     134       8     240     600       3     149       0     179    0.06     0.0     0.0    0.00    0.00   0.189   0.221   0.194   0.138   0.136   0.085   0.084   0.089   0.088
