*SOIL INORGANIC N BALANCE

*DSSAT Cropping System Model Ver. 4.8.5.000 -release  SEP 11, 2025 14:40:05

*RUN   1        : DRYLAND  - 0 KG N/HA      CSCER048 KSAS8101    1
 MODEL          : CSCER048 - Wheat
 EXPERIMENT     : KSAS8101 WH N RESPONSE,KANSAS STATE  3FE(N)*2IR  (DSSAT3)
 DATA PATH      :
 TREATMENT  1   : DRYLAND  - 0 KG N/HA      CSCER048
  


!SOIL INORGANIC N BALANCE                         Initial               Final
!                                                Year/Doy            Year/Doy
!                                                1981/279            1982/174
!                                               (kg[N]/ha)          (kg[N]/ha)
! Soil N state variables:
!   Soil NO3                                       116.16               47.34
!   Soil NH4                                        60.46                1.80
!   Soil Urea                                        0.00                0.00
!   Soil N gases                                     0.00                0.32
!   Unreleased fert N                                                    0.00

! N additions:
!   Fertilizer N                                     0.00
!   Mineralized N                                   56.74

! N subtractions:
!   N immobilized                                                        0.04
!   N leached                                                          125.44
!   N loss to tile drainage                                              0.00
!   N Uptake From Soil                                                  52.75
!   NH3 loss                                                             0.00
!   N2O loss                                                             0.49
!   N2 loss                                                              1.70
!   NO loss                                                              3.47

!   Total N balance                                233.36              233.36
!   Balance                                                            -0.000

!===============================================================================

*DSSAT Cropping System Model Ver. 4.8.5.000 -release  SEP 11, 2025 14:40:06

*RUN   2        : DRYLAND  - 60 KG N/HA     CSCER048 KSAS8101    2
 MODEL          : CSCER048 - Wheat
 EXPERIMENT     : KSAS8101 WH N RESPONSE,KANSAS STATE  3FE(N)*2IR  (DSSAT3)
 DATA PATH      :
 TREATMENT  2   : DRYLAND  - 60 KG N/HA     CSCER048
  


!SOIL INORGANIC N BALANCE                         Initial               Final
!                                                Year/Doy            Year/Doy
!                                                1981/279            1982/174
!                                               (kg[N]/ha)          (kg[N]/ha)
! Soil N state variables:
!   Soil NO3                                       116.16               66.59
!   Soil NH4                                        60.46                1.70
!   Soil Urea                                        0.00                0.00
!   Soil N gases                                     0.00                0.55
!   Unreleased fert N                                                    0.00

! N additions:
!   Fertilizer N                                    60.00
!   Mineralized N                                   57.29

! N subtractions:
!   N immobilized                                                        0.04
!   N leached                                                          127.84
!   N loss to tile drainage                                              0.00
!   N Uptake From Soil                                                  89.18
!   NH3 loss                                                             0.00
!   N2O loss                                                             0.82
!   N2 loss                                                              2.14
!   NO loss                                                              5.04

!   Total N balance                                293.90              293.90
!   Balance                                                            -0.000

!===============================================================================

*DSSAT Cropping System Model Ver. 4.8.5.000 -release  SEP 11, 2025 14:40:06

*RUN   3        : DRYLAND  - 180 KG N/HA SP CSCER048 KSAS8101    3
 MODEL          : CSCER048 - Wheat
 EXPERIMENT     : KSAS8101 WH N RESPONSE,KANSAS STATE  3FE(N)*2IR  (DSSAT3)
 DATA PATH      :
 TREATMENT  3   : DRYLAND  - 180 KG N/HA SP CSCER048
  


!SOIL INORGANIC N BALANCE                         Initial               Final
!                                                Year/Doy            Year/Doy
!                                                1981/279            1982/174
!                                               (kg[N]/ha)          (kg[N]/ha)
! Soil N state variables:
!   Soil NO3                                       116.16              132.71
!   Soil NH4                                        60.46                1.65
!   Soil Urea                                        0.00                0.00
!   Soil N gases                                     0.00                0.82
!   Unreleased fert N                                                    0.00

! N additions:
!   Fertilizer N                                   180.00
!   Mineralized N                                   56.90

! N subtractions:
!   N immobilized                                                        0.04
!   N leached                                                          135.36
!   N loss to tile drainage                                              0.00
!   N Uptake From Soil                                                 132.70
!   NH3 loss                                                             0.00
!   N2O loss                                                             1.20
!   N2 loss                                                              2.52
!   NO loss                                                              6.52

!   Total N balance                                413.52              413.52
!   Balance                                                            -0.000

!===============================================================================

*DSSAT Cropping System Model Ver. 4.8.5.000 -release  SEP 11, 2025 14:40:06

*RUN   4        : IRRIGATED - 0 KG N/HA     CSCER048 KSAS8101    4
 MODEL          : CSCER048 - Wheat
 EXPERIMENT     : KSAS8101 WH N RESPONSE,KANSAS STATE  3FE(N)*2IR  (DSSAT3)
 DATA PATH      :
 TREATMENT  4   : IRRIGATED - 0 KG N/HA     CSCER048
  


!SOIL INORGANIC N BALANCE                         Initial               Final
!                                                Year/Doy            Year/Doy
!                                                1981/279            1982/174
!                                               (kg[N]/ha)          (kg[N]/ha)
! Soil N state variables:
!   Soil NO3                                       116.16               15.02
!   Soil NH4                                        60.46                1.90
!   Soil Urea                                        0.00                0.00
!   Soil N gases                                     0.00                0.09
!   Unreleased fert N                                                    0.00

! N additions:
!   Fertilizer N                                     0.00
!   Mineralized N                                   58.76

! N subtractions:
!   N immobilized                                                        0.04
!   N leached                                                          174.00
!   N loss to tile drainage                                              0.00
!   N Uptake From Soil                                                  38.88
!   NH3 loss                                                             0.00
!   N2O loss                                                             0.46
!   N2 loss                                                              1.73
!   NO loss                                                              3.24

!   Total N balance                                235.38              235.38
!   Balance                                                            -0.000

!===============================================================================

*DSSAT Cropping System Model Ver. 4.8.5.000 -release  SEP 11, 2025 14:40:06

*RUN   5        : IRRIGATED - 60 KG N/HA    CSCER048 KSAS8101    5
 MODEL          : CSCER048 - Wheat
 EXPERIMENT     : KSAS8101 WH N RESPONSE,KANSAS STATE  3FE(N)*2IR  (DSSAT3)
 DATA PATH      :
 TREATMENT  5   : IRRIGATED - 60 KG N/HA    CSCER048
  


!SOIL INORGANIC N BALANCE                         Initial               Final
!                                                Year/Doy            Year/Doy
!                                                1981/279            1982/174
!                                               (kg[N]/ha)          (kg[N]/ha)
! Soil N state variables:
!   Soil NO3                                       116.16               18.70
!   Soil NH4                                        60.46                1.72
!   Soil Urea                                        0.00                0.00
!   Soil N gases                                     0.00                0.13
!   Unreleased fert N                                                    0.00

! N additions:
!   Fertilizer N                                    60.00
!   Mineralized N                                   59.64

! N subtractions:
!   N immobilized                                                        0.04
!   N leached                                                          209.23
!   N loss to tile drainage                                              0.00
!   N Uptake From Soil                                                  58.61
!   NH3 loss                                                             0.00
!   N2O loss                                                             0.79
!   N2 loss                                                              2.25
!   NO loss                                                              4.78

!   Total N balance                                296.26              296.26
!   Balance                                                            -0.000

!===============================================================================

*DSSAT Cropping System Model Ver. 4.8.5.000 -release  SEP 11, 2025 14:40:07

*RUN   6        : IRRIGATED 180 KG N/HA SPL CSCER048 KSAS8101    6
 MODEL          : CSCER048 - Wheat
 EXPERIMENT     : KSAS8101 WH N RESPONSE,KANSAS STATE  3FE(N)*2IR  (DSSAT3)
 DATA PATH      :
 TREATMENT  6   : IRRIGATED 180 KG N/HA SPL CSCER048
  


!SOIL INORGANIC N BALANCE                         Initial               Final
!                                                Year/Doy            Year/Doy
!                                                1981/279            1982/174
!                                               (kg[N]/ha)          (kg[N]/ha)
! Soil N state variables:
!   Soil NO3                                       116.16               42.11
!   Soil NH4                                        60.46                1.66
!   Soil Urea                                        0.00                0.00
!   Soil N gases                                     0.00                0.37
!   Unreleased fert N                                                    0.00

! N additions:
!   Fertilizer N                                   180.00
!   Mineralized N                                   60.35

! N subtractions:
!   N immobilized                                                        0.04
!   N leached                                                          266.39
!   N loss to tile drainage                                              0.00
!   N Uptake From Soil                                                  95.65
!   NH3 loss                                                             0.00
!   N2O loss                                                             1.26
!   N2 loss                                                              2.98
!   NO loss                                                              6.51

!   Total N balance                                416.97              416.97
!   Balance                                                            -0.000
