*SOIL-PLANT-ATMOSPHERE MODULE OUTPUT FILE

*DSSAT Cropping System Model Ver. 4.8.5.000 -release  OCT 24, 2025 14:14:59

*RUN   1        : 1                         CSCER048 TUDU1501    1
 MODEL          : CSCER048 - Wheat
 EXPERIMENT     : TUDU1501 WH
 DATA PATH      :
 TREATMENT  1   : 1                         CSCER048
  
!                                                                                                                                                                                        Soil evaporation (mm/d) by soil depth (cm):
!                                                                                                                                                                                        0-5    5-15   15-30   30-45   45-60   60-80  80-100 100-150 150-200
@YEAR DOY   DAS   SRAA  TMAXA  TMINA    REFA    EOAA    EOPA    EOSA    ETAA    EPAA    ESAA    EFAA    EMAA    EOAC    ETAC    EPAC    ESAC    EFAC    EMAC    KCAA    KBSA    KEAA    ES1D    ES2D    ES3D    ES4D    ES5D    ES6D    ES7D    ES8D    ES9D   TRWUD   TWUPD
   15 077     1  14.30  14.60   0.70 -99.000   2.776   0.000   2.776   1.110   0.000   1.110   0.000   0.000    2.78    1.11    0.00    1.11    0.00    0.00 -99.000 -99.000 -99.000   0.913   0.121   0.038   0.015   0.008   0.006   0.003   0.004   0.002   0.000   0.000
   15 078     2  14.80  13.60  -1.00 -99.000   2.772   0.000   2.772   1.127   0.000   1.127   0.000   0.000    5.55    2.24    0.00    2.24    0.00    0.00 -99.000 -99.000 -99.000   0.923   0.126   0.039   0.015   0.008   0.006   0.003   0.004   0.002   0.000   0.000
   15 079     3  15.70  13.30  -2.60 -99.000   2.864   0.000   2.864   1.035   0.000   1.035   0.000   0.000    8.41    3.27    0.00    3.27    0.00    0.00 -99.000 -99.000 -99.000   0.832   0.125   0.039   0.015   0.008   0.006   0.003   0.004   0.002   0.000   0.000
   15 080     4  16.60  14.00  -3.40 -99.000   3.025   0.000   3.025   1.076   0.000   1.076   0.000   0.000   11.44    4.35    0.00    4.35    0.00    0.00 -99.000 -99.000 -99.000   0.873   0.126   0.039   0.015   0.008   0.006   0.003   0.004   0.002   0.000   0.000
   15 081     5   7.10   5.70   2.60 -99.000   1.210   0.000   1.210   1.143   0.000   1.143   0.000   0.000   12.65    5.49    0.00    5.49    0.00    0.00 -99.000 -99.000 -99.000   0.940   0.126   0.039   0.015   0.008   0.006   0.003   0.004   0.002   0.000   0.000
   15 082     6  10.90   6.30  -0.80 -99.000   1.800   0.000   1.800   1.085   0.000   1.085   0.000   0.000   14.45    6.58    0.00    6.58    0.00    0.00 -99.000 -99.000 -99.000   0.882   0.126   0.039   0.015   0.008   0.006   0.003   0.004   0.002   0.000   0.000
   15 083     7  17.10  15.20  -2.00 -99.000   3.234   0.000   3.234   0.998   0.000   0.998   0.000   0.000   17.68    7.57    0.00    7.57    0.00    0.00 -99.000 -99.000 -99.000   0.796   0.125   0.039   0.015   0.008   0.006   0.003   0.004   0.002   0.000   0.000
   15 084     8  14.70  15.20   2.70 -99.000   2.910   0.000   2.910   0.919   0.000   0.919   0.000   0.000   20.59    8.49    0.00    8.49    0.00    0.00 -99.000 -99.000 -99.000   0.717   0.124   0.039   0.015   0.008   0.006   0.003   0.004   0.002   0.000   0.000
   15 085     9   7.10   7.70   4.90 -99.000   1.272   0.000   1.272   0.882   0.000   0.882   0.000   0.000   21.86    9.37    0.00    9.37    0.00    0.00 -99.000 -99.000 -99.000   0.681   0.123   0.039   0.015   0.008   0.006   0.003   0.004   0.002   0.000   0.000
   15 086    10   9.80   9.10   3.80 -99.000   1.773   0.015   1.758   0.921   0.015   0.906   0.000   0.000   23.64   10.30    0.02   10.28    0.00    0.00 -99.000 -99.000 -99.000   0.707   0.123   0.039   0.015   0.008   0.006   0.003   0.004   0.002   0.002   0.006
   15 087    11  14.20  11.80   1.00 -99.000   2.606   0.045   2.561   0.942   0.045   0.897   0.000   0.000   26.24   11.24    0.06   11.18    0.00    0.00 -99.000 -99.000 -99.000   0.698   0.122   0.039   0.015   0.008   0.006   0.003   0.004   0.002   0.005   0.008
   15 088    12  10.70  12.50   6.50 -99.000   2.096   0.054   2.042   0.927   0.054   0.873   0.000   0.000   28.34   12.16    0.11   12.05    0.00    0.00 -99.000 -99.000 -99.000   0.675   0.121   0.039   0.015   0.008   0.006   0.003   0.004   0.002   0.005   0.009
   15 089    13  10.50   9.50   3.80 -99.000   1.901   0.085   1.816   1.215   0.085   1.130   0.000   0.000   30.24   13.38    0.20   13.18    0.00    0.00 -99.000 -99.000 -99.000   0.928   0.125   0.039   0.015   0.008   0.006   0.003   0.004   0.002   0.008   0.011
   15 090    14  15.60  13.90   1.60 -99.000   3.014   0.162   2.852   2.993   0.140   2.852   0.000   0.000   33.25   16.37    0.34   16.03    0.00    0.00 -99.000 -99.000 -99.000   0.602   0.413   0.355   0.256   0.202   0.218   0.183   0.349   0.276   0.014   0.014
   15 091    15  11.30   6.50   0.20 -99.000   1.897   0.117   1.780   1.897   0.117   1.780   0.000   0.000   35.15   18.27    0.46   17.81    0.00    0.00 -99.000 -99.000 -99.000   0.386   0.260   0.221   0.159   0.125   0.134   0.112   0.214   0.170   0.012   0.019
   15 092    16  11.00   6.00   0.20 -99.000   1.833   0.117   1.717   1.834   0.117   1.717   0.000   0.000   36.98   20.10    0.57   19.53    0.00    0.00 -99.000 -99.000 -99.000   0.386   0.252   0.212   0.152   0.119   0.128   0.106   0.202   0.160   0.012   0.021
   15 093    17  15.30   9.70  -1.40 -99.000   2.682   0.176   2.507   2.682   0.176   2.507   0.000   0.000   39.66   22.79    0.75   22.04    0.00    0.00 -99.000 -99.000 -99.000   0.514   0.366   0.316   0.228   0.179   0.194   0.161   0.307   0.243   0.018   0.024
   15 094    18   8.60   5.30   1.90 -99.000   1.435   0.098   1.337   1.435   0.098   1.337   0.000   0.000   41.10   24.22    0.85   23.37    0.00    0.00 -99.000 -99.000 -99.000   0.280   0.194   0.167   0.121   0.095   0.103   0.085   0.163   0.129   0.010   0.028
   15 095    19  14.00   6.90  -2.00 -99.000   2.306   0.163   2.144   2.307   0.163   2.144   0.000   0.000   43.41   26.53    1.01   25.52    0.00    0.00 -99.000 -99.000 -99.000   0.428   0.311   0.271   0.196   0.155   0.168   0.139   0.266   0.210   0.016   0.030
   15 096    20  13.90   6.20  -2.40 -99.000   2.232   0.160   2.072   2.232   0.160   2.072   0.000   0.000   45.64   28.76    1.17   27.59    0.00    0.00 -99.000 -99.000 -99.000   0.392   0.301   0.265   0.193   0.152   0.164   0.137   0.262   0.207   0.016   0.033
   15 097    21  16.30   8.70  -2.90 -99.000   2.716   0.197   2.519   2.716   0.197   2.519   0.000   0.000   48.35   31.47    1.37   30.11    0.00    0.00 -99.000 -99.000 -99.000   0.461   0.365   0.324   0.237   0.186   0.202   0.168   0.321   0.254   0.020   0.035
   15 098    22  17.80  13.40  -0.20 -99.000   3.307   0.245   3.063   1.337   0.245   1.092   0.000   0.000   51.66   32.81    1.61   31.20    0.00    0.00 -99.000 -99.000 -99.000   0.894   0.122   0.039   0.015   0.008   0.006   0.003   0.004   0.002   0.024   0.039
   15 099    23  19.20  18.00   2.40 -99.000   3.912   0.322   3.591   1.316   0.322   0.994   0.000   0.000   55.57   34.13    1.93   32.19    0.00    0.00 -99.000 -99.000 -99.000   0.798   0.120   0.039   0.015   0.008   0.006   0.003   0.004   0.002   0.032   0.046
   15 100    24  21.60  21.00   1.70 -99.000   4.532   0.462   4.071   1.362   0.462   0.900   0.000   0.000   60.10   35.49    2.40   33.09    0.00    0.00 -99.000 -99.000 -99.000   0.705   0.119   0.038   0.015   0.008   0.006   0.003   0.004   0.002   0.046   0.054
   15 101    25  17.70  18.10   5.30 -99.000   3.662   0.444   3.219   1.249   0.444   0.805   0.000   0.000   63.77   36.74    2.84   33.90    0.00    0.00 -99.000 -99.000 -99.000   0.612   0.117   0.038   0.015   0.008   0.006   0.003   0.004   0.002   0.044   0.066
   15 102    26  18.20  18.90   5.70 -99.000   3.798   0.527   3.272   1.075   0.357   0.719   0.000   0.000   67.56   37.81    3.20   34.62    0.00    0.00 -99.000 -99.000 -99.000   0.527   0.115   0.038   0.015   0.008   0.006   0.003   0.004   0.002   0.036   0.036
   15 103    27  18.30  18.40   5.30 -99.000   3.761   0.571   3.192   0.962   0.305   0.657   0.000   0.000   71.33   38.78    3.50   35.27    0.00    0.00 -99.000 -99.000 -99.000   0.468   0.113   0.038   0.015   0.008   0.006   0.003   0.004   0.002   0.031   0.031
   15 104    28  18.60  18.80   5.40 -99.000   3.839   0.597   3.243   0.907   0.300   0.607   0.000   0.000   75.16   39.68    3.80   35.88    0.00    0.00 -99.000 -99.000 -99.000   0.420   0.111   0.038   0.015   0.008   0.006   0.003   0.004   0.002   0.030   0.030
   15 105    29  21.70  23.30   5.50 -99.000   4.758   0.751   4.008   0.864   0.300   0.564   0.000   0.000   79.92   40.55    4.10   36.45    0.00    0.00 -99.000 -99.000 -99.000   0.379   0.109   0.038   0.015   0.008   0.006   0.003   0.004   0.002   0.030   0.031
   15 106    30  18.10  21.80   9.60 -99.000   4.026   0.643   3.383   0.845   0.315   0.530   0.000   0.000   83.95   41.39    4.42   36.98    0.00    0.00 -99.000 -99.000 -99.000   0.348   0.107   0.038   0.015   0.008   0.006   0.003   0.004   0.002   0.032   0.032
   15 107    31  17.40  16.40   5.30 -99.000   3.447   0.563   2.885   3.213   0.331   2.883   0.000   0.000   87.40   44.61    4.75   39.86    0.00    0.00 -99.000 -99.000 -99.000   0.466   0.442   0.384   0.278   0.217   0.234   0.195   0.372   0.295   0.033   0.033
   15 108    32  16.00  10.10   0.90 -99.000   2.840   0.471   2.370   2.839   0.471   2.368   0.000   0.000   90.24   47.44    5.22   42.23    0.00    0.00 -99.000 -99.000 -99.000   0.483   0.360   0.298   0.214   0.168   0.181   0.151   0.288   0.228   0.047   0.114
   15 109    33  19.10  12.90  -0.10 -99.000   3.480   0.584   2.897   3.477   0.584   2.893   0.000   0.000   93.72   50.92    5.80   45.12    0.00    0.00 -99.000 -99.000 -99.000   0.543   0.428   0.370   0.268   0.211   0.228   0.191   0.365   0.289   0.058   0.125
   15 110    34  21.80  16.50  -0.20 -99.000   4.178   0.713   3.466   4.175   0.713   3.462   0.000   0.000   97.89   55.10    6.51   48.58    0.00    0.00 -99.000 -99.000 -99.000   0.606   0.511   0.448   0.326   0.257   0.279   0.234   0.447   0.353   0.071   0.138
   15 111    35  22.90  19.70   1.60 -99.000   4.665   0.818   3.849   1.800   0.818   0.982   0.000   0.000  102.56   56.90    7.33   49.56    0.00    0.00 -99.000 -99.000 -99.000   0.786   0.120   0.038   0.015   0.008   0.006   0.003   0.004   0.002   0.082   0.154
   15 112    36  22.50  19.80   2.60 -99.000   4.607   0.844   3.765   1.701   0.844   0.858   0.000   0.000  107.17   58.60    8.18   50.42    0.00    0.00 -99.000 -99.000 -99.000   0.664   0.118   0.038   0.015   0.008   0.006   0.003   0.004   0.002   0.084   0.171
   15 113    37  19.10  12.20   0.00 -99.000   3.369   0.646   2.724   1.389   0.646   0.743   0.000   0.000  110.53   59.99    8.82   51.16    0.00    0.00 -99.000 -99.000 -99.000   0.551   0.116   0.038   0.015   0.008   0.006   0.003   0.004   0.002   0.065   0.118
   15 114    38  23.90  18.20  -0.70 -99.000   4.586   0.893   3.694   1.521   0.858   0.664   0.000   0.000  115.12   61.51    9.68   51.83    0.00    0.00 -99.000 -99.000 -99.000   0.475   0.114   0.038   0.015   0.008   0.006   0.003   0.004   0.002   0.086   0.086
   15 115    39  22.60  19.70   3.10 -99.000   4.587   0.920   3.669   1.542   0.868   0.674   0.000   0.000  119.71   63.05   10.55   52.50    0.00    0.00 -99.000 -99.000 -99.000   0.489   0.110   0.037   0.015   0.008   0.006   0.003   0.004   0.002   0.087   0.087
   15 116    40  17.60  20.00  10.10 -99.000   3.832   0.804   3.030   1.563   0.804   0.759   0.000   0.000  123.54   64.61   11.35   53.26    0.00    0.00 -99.000 -99.000 -99.000   0.578   0.106   0.037   0.015   0.008   0.006   0.003   0.004   0.002   0.080   0.119
   15 117    41  22.80  22.80   6.30 -99.000   4.983   1.113   3.872   2.095   1.113   0.982   0.000   0.000  128.52   66.71   12.46   54.24    0.00    0.00 -99.000 -99.000 -99.000   0.802   0.105   0.037   0.015   0.007   0.006   0.003   0.004   0.002   0.111   0.219
   15 118    42  15.60  12.10   4.50 -99.000   2.897   0.686   2.213   2.896   0.686   2.210   0.000   0.000  131.42   69.60   13.15   56.45    0.00    0.00 -99.000 -99.000 -99.000   0.461   0.294   0.268   0.203   0.161   0.174   0.147   0.280   0.222   0.069   0.288
   15 119    43  20.00  13.10   0.80 -99.000   3.657   0.889   2.770   3.656   0.889   2.766   0.000   0.000  135.08   73.26   14.04   59.22    0.00    0.00 -99.000 -99.000 -99.000   0.563   0.391   0.335   0.252   0.200   0.217   0.183   0.350   0.277   0.089   0.306
   15 120    44  18.20  15.40   5.30 -99.000   3.583   0.887   2.697   3.581   0.887   2.694   0.000   0.000  138.66   76.84   14.93   61.91    0.00    0.00 -99.000 -99.000 -99.000   0.516   0.388   0.330   0.248   0.197   0.214   0.180   0.346   0.274   0.089   0.330
   15 121    45   7.90   9.60   7.70 -99.000   1.453   0.374   1.080   1.452   0.374   1.079   0.000   0.000  140.11   78.29   15.30   62.99    0.00    0.00 -99.000 -99.000 -99.000   0.220   0.170   0.139   0.097   0.075   0.080   0.067   0.128   0.102   0.037   0.352
   15 122    46  14.40  13.60   7.40 -99.000   2.839   0.751   2.090   2.838   0.751   2.087   0.000   0.000  142.95   81.13   16.05   65.08    0.00    0.00 -99.000 -99.000 -99.000   0.437   0.331   0.281   0.192   0.145   0.151   0.125   0.237   0.188   0.075   0.362
   15 123    47  14.40  16.30  10.20 -99.000   3.012   0.826   2.187   3.010   0.826   2.184   0.000   0.000  145.97   84.14   16.88   67.26    0.00    0.00 -99.000 -99.000 -99.000   0.460   0.349   0.289   0.203   0.155   0.160   0.131   0.244   0.193   0.083   0.380
   15 124    48  15.00  20.70  14.20 -99.000   3.454   0.990   2.465   3.452   0.990   2.462   0.000   0.000  149.42   87.59   17.87   69.73    0.00    0.00 -99.000 -99.000 -99.000   0.489   0.378   0.319   0.230   0.178   0.188   0.156   0.293   0.231   0.099   0.400
   15 125    49  21.30  25.90  12.90 -99.000   5.118   1.551   3.569   5.116   1.551   3.564   0.000   0.000  154.54   92.71   19.42   73.29    0.00    0.00 -99.000 -99.000 -99.000   0.703   0.532   0.460   0.334   0.261   0.275   0.228   0.432   0.340   0.155   0.421
   15 126    50  14.70  14.60   8.50 -99.000   2.916   0.941   1.977   2.915   0.941   1.975   0.000   0.000  157.45   95.62   20.36   75.27    0.00    0.00 -99.000 -99.000 -99.000   0.406   0.308   0.260   0.182   0.141   0.147   0.122   0.230   0.180   0.094   0.452
   15 127    51  18.90  18.00   8.00 -99.000   3.940   1.298   2.644   3.939   1.298   2.641   0.000   0.000  161.39   99.56   21.66   77.91    0.00    0.00 -99.000 -99.000 -99.000   0.521   0.408   0.348   0.244   0.189   0.200   0.167   0.317   0.247   0.130   0.476
   15 128    52  22.00  22.20   8.80 -99.000   4.842   1.633   3.212   4.839   1.633   3.206   0.000   0.000  166.24  104.40   23.29   81.11    0.00    0.00 -99.000 -99.000 -99.000   0.586   0.478   0.420   0.301   0.236   0.253   0.212   0.404   0.317   0.163   0.506
   15 129    53  15.70  17.60  10.80 -99.000   3.287   1.139   2.149   3.283   1.139   2.144   0.000   0.000  169.52  107.68   24.43   83.26    0.00    0.00 -99.000 -99.000 -99.000   0.401   0.312   0.277   0.201   0.158   0.169   0.143   0.271   0.213   0.114   0.542
   15 130    54  20.60  19.00   7.40 -99.000   4.279   1.520   2.761   4.272   1.520   2.753   0.000   0.000  173.80  111.96   25.95   86.01    0.00    0.00 -99.000 -99.000 -99.000   0.521   0.394   0.353   0.258   0.203   0.218   0.184   0.348   0.274   0.152   0.569
   15 131    55  24.50  21.80   5.60 -99.000   5.168   1.877   3.294   5.159   1.877   3.282   0.000   0.000  178.97  117.12   27.82   89.29    0.00    0.00 -99.000 -99.000 -99.000   0.570   0.466   0.426   0.314   0.248   0.267   0.225   0.427   0.338   0.188   0.604
   15 132    56  26.70  27.50   8.40 -99.000   6.176   2.297   3.882   3.215   2.297   0.919   0.000   0.000  185.15  120.33   30.12   90.21    0.00    0.00 -99.000 -99.000 -99.000   0.732   0.112   0.037   0.015   0.008   0.006   0.003   0.004   0.002   0.230   0.647
   15 133    57  18.10  22.10  13.40 -99.000   4.051   1.567   2.487   2.567   1.567   1.001   0.000   0.000  189.20  122.90   31.69   91.21    0.00    0.00 -99.000 -99.000 -99.000   0.815   0.111   0.037   0.015   0.008   0.006   0.003   0.004   0.002   0.157   0.695
   15 134    58  16.60  18.60  11.40 -99.000   3.506   1.446   2.062   3.497   1.446   2.051   0.000   0.000  192.70  126.40   33.13   93.26    0.00    0.00 -99.000 -99.000 -99.000   0.392   0.280   0.252   0.191   0.153   0.166   0.140   0.266   0.210   0.145   0.727
   15 135    59  17.00  15.20   7.70 -99.000   3.293   1.421   1.875   2.504   1.421   1.083   0.000   0.000  196.00  128.90   34.55   94.34    0.00    0.00 -99.000 -99.000 -99.000   0.900   0.111   0.036   0.014   0.007   0.006   0.003   0.004   0.002   0.142   0.759
   15 136    60  23.40  19.80   5.70 -99.000   4.724   2.107   2.620   3.083   2.107   0.976   0.000   0.000  200.72  131.98   36.66   95.32    0.00    0.00 -99.000 -99.000 -99.000   0.796   0.108   0.035   0.014   0.007   0.006   0.003   0.004   0.002   0.211   0.793
   15 137    61  16.90  17.80  10.50 -99.000   3.446   1.594   1.854   2.478   1.594   0.883   0.000   0.000  204.17  134.46   38.26   96.20    0.00    0.00 -99.000 -99.000 -99.000   0.708   0.104   0.035   0.014   0.007   0.006   0.003   0.004   0.002   0.159   0.841
   15 138    62  25.30  23.50   7.30 -99.000   5.390   2.594   2.800   3.411   2.594   0.818   0.000   0.000  209.56  137.87   40.85   97.02    0.00    0.00 -99.000 -99.000 -99.000   0.645   0.101   0.034   0.014   0.007   0.006   0.003   0.004   0.002   0.259   0.876
   15 139    63  17.90  18.00   9.90 -99.000   3.602   1.806   1.798   2.895   1.806   1.088   0.000   0.000  213.16  140.77   42.66   98.11    0.00    0.00 -99.000 -99.000 -99.000   0.903   0.114   0.034   0.014   0.007   0.006   0.003   0.004   0.002   0.181   0.711
   15 140    64  11.50  10.00   6.70 -99.000   2.017   1.049   0.969   2.009   1.049   0.960   0.000   0.000  215.18  142.78   43.71   99.07    0.00    0.00 -99.000 -99.000 -99.000   0.220   0.152   0.115   0.081   0.064   0.070   0.059   0.112   0.089   0.105   0.970
   15 141    65  14.90  12.50   7.00 -99.000   2.722   1.446   1.278   2.711   1.446   1.265   0.000   0.000  217.90  145.49   45.15  100.33    0.00    0.00 -99.000 -99.000 -99.000   0.266   0.202   0.166   0.113   0.086   0.092   0.077   0.147   0.116   0.145   0.996
   15 142    66  21.20  15.40   4.30 -99.000   3.913   2.137   1.780   3.898   2.137   1.761   0.000   0.000  221.81  149.39   47.29  102.10    0.00    0.00 -99.000 -99.000 -99.000   0.339   0.266   0.229   0.164   0.127   0.136   0.113   0.216   0.171   0.214   1.031
   15 143    67  20.00  16.60   6.80 -99.000   3.825   2.150   1.679   3.811   2.150   1.661   0.000   0.000  225.64  153.20   49.44  103.76    0.00    0.00 -99.000 -99.000 -99.000   0.320   0.246   0.214   0.154   0.120   0.130   0.108   0.206   0.163   0.215   1.080
   15 144    68  17.10  15.70   8.60 -99.000   3.274   1.927   1.350   3.262   1.927   1.335   0.000   0.000  228.91  156.46   51.37  105.09    0.00    0.00 -99.000 -99.000 -99.000   0.262   0.193   0.170   0.124   0.097   0.105   0.087   0.166   0.131   0.193   1.128
   15 145    69  19.60  19.20   9.90 -99.000   3.966   2.437   1.532   3.953   2.437   1.515   0.000   0.000  232.88  160.41   53.80  106.61    0.00    0.00 -99.000 -99.000 -99.000   0.289   0.218   0.193   0.141   0.111   0.120   0.101   0.191   0.151   0.244   1.170
   15 146    70  17.10  15.10   8.10 -99.000   3.193   2.055   1.141   3.183   2.055   1.128   0.000   0.000  236.07  163.60   55.86  107.74    0.00    0.00 -99.000 -99.000 -99.000   0.204   0.161   0.145   0.106   0.084   0.091   0.077   0.145   0.115   0.205   1.219
   15 147    71  19.90  14.00   4.50 -99.000   3.510   2.334   1.180   3.351   2.334   1.017   0.000   0.000  239.58  166.95   58.19  108.75    0.00    0.00 -99.000 -99.000 -99.000   0.827   0.115   0.037   0.015   0.007   0.006   0.003   0.004   0.002   0.233   1.263
   15 148    72  26.60  20.30   3.50 -99.000   5.073   3.447   1.631   4.331   3.447   0.884   0.000   0.000  244.65  171.28   61.64  109.64    0.00    0.00 -99.000 -99.000 -99.000   0.698   0.111   0.037   0.014   0.007   0.006   0.003   0.004   0.002   0.345   1.315
   15 149    73  25.70  23.40   7.80 -99.000   5.286   3.693   1.598   4.429   3.693   0.736   0.000   0.000  249.94  175.71   65.33  110.37    0.00    0.00 -99.000 -99.000 -99.000   0.557   0.106   0.036   0.014   0.007   0.006   0.003   0.004   0.002   0.369   1.268
   15 150    74  17.10  18.40  11.50 -99.000   3.384   2.442   0.945   3.067   2.442   0.624   0.000   0.000  253.32  178.77   67.77  111.00    0.00    0.00 -99.000 -99.000 -99.000   0.453   0.100   0.035   0.014   0.007   0.006   0.003   0.004   0.002   0.244   1.128
   15 151    75  22.30  21.20   9.60 -99.000   4.488   3.328   1.165   3.906   3.328   0.578   0.000   0.000  257.81  182.68   71.10  111.57    0.00    0.00 -99.000 -99.000 -99.000   0.412   0.096   0.034   0.014   0.007   0.006   0.003   0.004   0.002   0.333   1.155
   15 152    76  24.70  26.10  11.90 -99.000   5.375   4.083   1.297   4.623   4.083   0.539   0.000   0.000  263.18  187.30   75.18  112.11    0.00    0.01 -99.000 -99.000 -99.000   0.381   0.090   0.032   0.013   0.007   0.006   0.003   0.004   0.002   0.408   1.200
   15 153    77  22.70  25.70  13.80 -99.000   4.969   3.925   1.048   4.416   3.913   0.503   0.000   0.000  268.15  191.72   79.10  112.62    0.00    0.01 -99.000 -99.000 -99.000   0.354   0.083   0.031   0.013   0.007   0.005   0.003   0.004   0.002   0.391   1.228
   15 154    78  26.20  28.40  12.50 -99.000   5.838   4.764   1.079   5.227   4.764   0.463   0.000   0.000  273.99  196.94   83.86  113.08    0.00    0.01 -99.000 -99.000 -99.000   0.322   0.076   0.030   0.013   0.007   0.005   0.003   0.004   0.002   0.476   1.109
   15 155    79  24.80  26.70  12.60 -99.000   5.402   4.524   0.883   4.950   4.524   0.426   0.000   0.000  279.39  201.90   88.38  113.50    0.00    0.01 -99.000 -99.000 -99.000   0.293   0.070   0.028   0.012   0.007   0.005   0.003   0.004   0.002   0.452   1.010
   15 156    80  23.50  28.10  15.40 -99.000   5.305   4.537   0.773   4.931   4.537   0.394   0.000   0.000  284.70  206.83   92.92  113.90    0.00    0.01 -99.000 -99.000 -99.000   0.267   0.068   0.026   0.012   0.006   0.005   0.003   0.004   0.002   0.454   0.901
   15 157    81  27.40  30.30  13.20 -99.000   6.224   5.415   0.815   5.942   5.415   0.527   0.000   0.001  290.92  212.77   98.34  114.42    0.00    0.01 -99.000 -99.000 -99.000   0.404   0.065   0.024   0.011   0.006   0.005   0.003   0.004   0.002   0.541   0.737
   15 158    82  21.90  26.90  16.00 -99.000   4.886   4.315   0.576   4.882   4.315   0.567   0.000   0.001  295.81  217.65  102.65  114.99    0.00    0.01 -99.000 -99.000 -99.000   0.464   0.055   0.020   0.009   0.005   0.005   0.003   0.004   0.002   0.431   0.909
   15 159    83  18.70  20.10  12.20 -99.000   3.707   3.338   0.373   3.706   3.338   0.367   0.000   0.001  299.52  221.36  105.99  115.36    0.00    0.01 -99.000 -99.000 -99.000   0.317   0.030   0.008   0.004   0.002   0.002   0.001   0.002   0.001   0.334   0.612
   15 160    84   9.90  13.40  11.20 -99.000   1.781   1.601   0.182   1.780   1.601   0.179   0.000   0.001  301.30  223.14  107.59  115.54    0.00    0.01 -99.000 -99.000 -99.000   0.045   0.024   0.014   0.012   0.011   0.014   0.013   0.025   0.020   0.160   1.478
   15 161    85  17.60  18.20  11.20 -99.000   3.384   3.038   0.350   3.382   3.038   0.344   0.000   0.001  304.68  226.52  110.63  115.88    0.00    0.01 -99.000 -99.000 -99.000   0.078   0.051   0.029   0.024   0.021   0.027   0.026   0.049   0.039   0.304   1.487
   15 162    86  19.10  22.40  14.20 -99.000   3.977   3.564   0.417   3.975   3.564   0.410   0.000   0.001  308.66  230.49  114.19  116.29    0.00    0.01 -99.000 -99.000 -99.000   0.347   0.043   0.009   0.004   0.002   0.002   0.001   0.002   0.001   0.356   1.489
   15 163    87  26.70  28.90  12.90 -99.000   5.948   5.318   0.635   5.944   5.318   0.625   0.000   0.001  314.60  236.44  119.51  116.92    0.00    0.01 -99.000 -99.000 -99.000   0.514   0.074   0.016   0.007   0.004   0.003   0.002   0.003   0.002   0.532   1.469
   15 164    88  21.90  25.50  14.70 -99.000   4.749   4.237   0.517   4.746   4.237   0.509   0.000   0.001  319.35  241.18  123.75  117.42    0.00    0.01 -99.000 -99.000 -99.000   0.427   0.054   0.012   0.005   0.003   0.003   0.002   0.002   0.001   0.424   0.900
   15 165    89  20.70  24.90  15.30 -99.000   4.492   3.997   0.499   4.488   3.997   0.490   0.000   0.001  323.85  245.67  127.74  117.91    0.00    0.01 -99.000 -99.000 -99.000   0.122   0.078   0.044   0.031   0.026   0.035   0.035   0.067   0.053   0.400   1.458
   15 166    90  11.60  16.60  13.60 -99.000   2.234   1.984   0.253   2.233   1.984   0.248   0.000   0.001  326.08  247.91  129.73  118.16    0.00    0.01 -99.000 -99.000 -99.000   0.059   0.045   0.029   0.015   0.012   0.016   0.016   0.031   0.025   0.198   1.869
   15 167    91  18.40  19.00  11.40 -99.000   3.592   3.183   0.413   3.589   3.183   0.405   0.000   0.001  329.67  251.50  132.91  118.57    0.00    0.01 -99.000 -99.000 -99.000   0.087   0.068   0.054   0.031   0.020   0.027   0.027   0.052   0.041   0.318   2.104
   15 168    92  20.50  19.50  10.10 -99.000   3.978   3.519   0.464   3.976   3.519   0.456   0.000   0.001  333.65  255.47  136.43  119.02    0.00    0.02 -99.000 -99.000 -99.000   0.089   0.072   0.061   0.041   0.023   0.031   0.031   0.060   0.048   0.352   2.134
   15 169    93  18.80  17.20   9.30 -99.000   3.508   3.098   0.415   3.506   3.098   0.408   0.000   0.001  337.16  258.98  139.53  119.43    0.00    0.02 -99.000 -99.000 -99.000   0.087   0.064   0.053   0.037   0.020   0.027   0.027   0.052   0.041   0.310   2.167
   15 170    94  14.40  15.50  10.90 -99.000   2.669   2.353   0.320   2.667   2.353   0.314   0.000   0.001  339.83  261.64  141.88  119.75    0.00    0.02 -99.000 -99.000 -99.000   0.067   0.048   0.041   0.029   0.016   0.020   0.021   0.040   0.032   0.235   2.198
   15 171    95  16.00  15.10   9.40 -99.000   2.905   2.556   0.352   2.903   2.556   0.346   0.000   0.001  342.73  264.55  144.44  120.09    0.00    0.02 -99.000 -99.000 -99.000   0.070   0.053   0.046   0.033   0.019   0.023   0.023   0.045   0.036   0.256   2.395
   15 172    96  19.10  17.60   9.50 -99.000   3.595   3.158   0.441   3.592   3.158   0.433   0.000   0.001  346.33  268.14  147.60  120.52    0.00    0.02 -99.000 -99.000 -99.000   0.084   0.065   0.058   0.042   0.024   0.029   0.029   0.057   0.045   0.316   2.393
   15 173    97  19.60  20.50  11.90 -99.000   3.918   3.436   0.487   3.915   3.436   0.479   0.000   0.001  350.24  272.05  151.03  121.00    0.00    0.02 -99.000 -99.000 -99.000   0.104   0.072   0.062   0.045   0.025   0.031   0.031   0.061   0.048   0.344   2.396
   15 174    98  17.60  16.60   9.70 -99.000   3.280   2.870   0.414   3.277   2.870   0.407   0.000   0.001  353.52  275.33  153.90  121.41    0.00    0.02 -99.000 -99.000 -99.000   0.095   0.062   0.052   0.037   0.020   0.025   0.026   0.050   0.040   0.287   2.405
   15 175    99  23.00  19.80   8.00 -99.000   4.409   3.851   0.564   4.406   3.851   0.554   0.000   0.001  357.93  279.74  157.75  121.96    0.00    0.02 -99.000 -99.000 -99.000   0.115   0.084   0.073   0.053   0.030   0.035   0.036   0.071   0.056   0.385   2.445
   15 176   100  25.80  21.30   6.40 -99.000   4.971   4.334   0.643   4.967   4.334   0.632   0.000   0.001  362.90  284.70  162.09  122.60    0.00    0.02 -99.000 -99.000 -99.000   0.522   0.068   0.022   0.008   0.003   0.003   0.002   0.002   0.001   0.433   2.561
   15 177   101  26.70  24.50   8.50 -99.000   5.461   4.752   0.715   5.456   4.752   0.703   0.000   0.001  368.37  290.16  166.84  123.30    0.00    0.02 -99.000 -99.000 -99.000   0.566   0.085   0.027   0.011   0.004   0.003   0.002   0.003   0.002   0.475   2.597
   15 178   102  20.10  22.90  13.80 -99.000   4.210   3.655   0.559   4.205   3.655   0.549   0.000   0.001  372.58  294.37  170.49  123.85    0.00    0.02 -99.000 -99.000 -99.000   0.430   0.073   0.024   0.010   0.004   0.003   0.002   0.003   0.001   0.366   2.620
   15 179   103  20.80  22.70  13.00 -99.000   4.317   3.739   0.582   4.312   3.739   0.572   0.000   0.001  376.89  298.68  174.23  124.42    0.00    0.02 -99.000 -99.000 -99.000   0.438   0.081   0.028   0.011   0.004   0.003   0.003   0.003   0.002   0.374   2.381
   15 180   104  23.70  25.20  12.50 -99.000   5.051   4.364   0.692   4.976   4.364   0.611   0.000   0.001  381.94  303.65  178.60  125.03    0.00    0.02 -99.000 -99.000 -99.000   0.447   0.097   0.034   0.014   0.005   0.004   0.003   0.004   0.002   0.436   1.937
   15 181   105  27.30  29.00  12.20 -99.000   6.074   5.234   0.845   5.785   5.234   0.550   0.000   0.001  388.02  309.44  183.83  125.58    0.00    0.02 -99.000 -99.000 -99.000   0.397   0.089   0.032   0.013   0.005   0.004   0.003   0.004   0.002   0.523   1.879
   15 182   106  25.80  28.60  13.50 -99.000   5.772   4.960   0.818   5.437   4.938   0.498   0.000   0.001  393.79  314.88  188.77  126.08    0.00    0.02 -99.000 -99.000 -99.000   0.356   0.080   0.031   0.013   0.005   0.004   0.003   0.004   0.002   0.494   1.848
   15 183   107  25.60  29.70  14.80 -99.000   5.859   5.019   0.845   5.475   5.019   0.455   0.000   0.001  399.65  320.35  193.79  126.54    0.00    0.03 -99.000 -99.000 -99.000   0.324   0.070   0.029   0.013   0.005   0.004   0.003   0.004   0.002   0.502   1.409
   15 184   108  28.00  31.90  14.10 -99.000   6.536   5.581   0.961   6.001   5.581   0.419   0.000   0.001  406.18  326.35  199.37  126.95    0.00    0.03 -99.000 -99.000 -99.000   0.295   0.067   0.026   0.012   0.005   0.004   0.003   0.004   0.002   0.558   1.291
   15 185   109  27.10  32.90  16.20 -99.000   6.497   5.528   0.974   5.915   5.528   0.386   0.000   0.001  412.68  332.27  204.90  127.34    0.00    0.03 -99.000 -99.000 -99.000   0.269   0.064   0.024   0.012   0.005   0.004   0.003   0.004   0.002   0.553   0.799
   15 186   110  26.30  33.40  17.60 -99.000   6.405   5.429   0.981   5.787   5.429   0.357   0.000   0.001  419.09  338.05  210.33  127.70    0.00    0.03 -99.000 -99.000 -99.000   0.245   0.062   0.022   0.011   0.005   0.004   0.003   0.004   0.002   0.543   0.663
   15 187   111  22.10  28.80  17.60 -99.000   5.119   4.322   0.801   4.077   3.710   0.367   0.000   0.001  424.20  342.13  214.04  128.07    0.00    0.03 -99.000 -99.000 -99.000   0.258   0.059   0.022   0.010   0.005   0.004   0.003   0.004   0.002   0.371   0.371
   15 188   112  27.50  33.80  16.40 -99.000   6.674   5.628   1.051   3.464   2.886   0.578   0.000   0.001  430.88  345.60  216.93  128.64    0.00    0.03 -99.000 -99.000 -99.000   0.473   0.057   0.021   0.009   0.005   0.004   0.003   0.004   0.002   0.289   0.289
   15 189   113  17.60  21.00  13.80 -99.000   3.617   3.026   0.595   3.612   3.026   0.585   0.000   0.001  434.50  349.21  219.95  129.23    0.00    0.03 -99.000 -99.000 -99.000   0.520   0.037   0.012   0.005   0.003   0.002   0.002   0.003   0.001   0.303   0.953
   15 190   114  21.10  19.10   8.70 -99.000   4.051   3.386   0.669   4.045   3.386   0.658   0.000   0.001  438.55  353.25  223.34  129.89    0.00    0.03 -99.000 -99.000 -99.000   0.583   0.044   0.014   0.006   0.003   0.002   0.002   0.003   0.001   0.339   0.996
   15 191   115  25.40  22.40   7.30 -99.000   5.025   4.198   0.833   4.234   3.519   0.715   0.000   0.001  443.57  357.49  226.86  130.60    0.00    0.03 -99.000 -99.000 -99.000   0.605   0.063   0.020   0.009   0.004   0.004   0.003   0.004   0.002   0.352   0.976
   15 192   116  29.20  28.30   8.30 -99.000   6.267   5.230   1.043   2.938   2.487   0.451   0.000   0.001  449.84  360.42  229.34  131.05    0.00    0.03 -99.000 -99.000 -99.000   0.343   0.062   0.020   0.009   0.004   0.004   0.003   0.004   0.002   0.249   0.249
   15 193   117  24.70  27.70  13.30 -99.000   5.482   4.537   0.951   2.614   2.192   0.421   0.000   0.001  455.32  363.04  231.53  131.47    0.00    0.03 -99.000 -99.000 -99.000   0.317   0.059   0.020   0.009   0.004   0.003   0.003   0.004   0.002   0.219   0.219
   15 194   118  14.80  21.00  15.80 -99.000   3.093   2.537   0.558   2.443   2.007   0.435   0.000   0.001  458.41  365.48  233.54  131.91    0.00    0.03 -99.000 -99.000 -99.000   0.333   0.057   0.019   0.008   0.004   0.003   0.003   0.004   0.002   0.201   0.201
   15 195   119  20.90  25.80  15.40 -99.000   4.618   3.784   0.838   2.324   1.876   0.448   0.000   0.001  463.03  367.81  235.42  132.36    0.00    0.03 -99.000 -99.000 -99.000   0.348   0.056   0.019   0.008   0.004   0.003   0.003   0.004   0.002   0.188   0.194
   15 196   120  21.80  27.40  16.00 -99.000   4.935   4.007   0.932   2.191   1.775   0.415   0.000   0.001  467.97  370.00  237.19  132.77    0.00    0.03 -99.000 -99.000 -99.000   0.317   0.055   0.019   0.008   0.004   0.003   0.003   0.004   0.002   0.177   0.177
   15 197   121  26.90  31.10  13.60 -99.000   6.242   5.022   1.225   2.080   1.694   0.385   0.000   0.001  474.21  372.08  238.89  133.16    0.00    0.03 -99.000 -99.000 -99.000   0.289   0.054   0.019   0.008   0.004   0.003   0.003   0.004   0.002   0.169   0.169
   15 198   122  27.70  33.90  15.30 -99.000   6.719   5.353   1.371   1.857   1.498   0.358   0.000   0.001  480.93  373.93  240.38  133.51    0.00    0.04 -99.000 -99.000 -99.000   0.263   0.053   0.019   0.008   0.004   0.003   0.002   0.004   0.002   0.150   0.150
   15 199   123  24.20  29.10  14.80 -99.000   5.554   4.343   1.215   1.586   1.234   0.351   0.000   0.001  486.48  375.52  241.62  133.87    0.00    0.04 -99.000 -99.000 -99.000   0.257   0.052   0.018   0.008   0.004   0.003   0.002   0.004   0.002   0.123   0.123
   15 200   124  22.80  28.80  16.00 -99.000   5.275   4.045   1.234   1.440   1.072   0.367   0.000   0.001  491.76  376.96  242.69  134.23    0.00    0.04 -99.000 -99.000 -99.000   0.274   0.051   0.018   0.008   0.004   0.003   0.002   0.004   0.002   0.107   0.107
   15 201   125  20.50  28.50  18.10 -99.000   4.813   3.617   1.200   1.323   0.958   0.364   0.000   0.001  496.57  378.28  243.65  134.60    0.00    0.04 -99.000 -99.000 -99.000   0.272   0.050   0.018   0.008   0.004   0.003   0.002   0.004   0.002   0.096   0.096
   15 202   126  24.90  32.00  16.50 -99.000   6.018   4.426   1.596   1.210   0.870   0.339   0.000   0.001  502.59  379.49  244.52  134.94    0.00    0.04 -99.000 -99.000 -99.000   0.247   0.050   0.018   0.008   0.004   0.003   0.002   0.004   0.002   0.087   0.087
   15 203   127  27.30  34.30  15.60 -99.000   6.734   4.843   1.896   1.117   0.801   0.316   0.000   0.001  509.32  380.61  245.32  135.25    0.00    0.04 -99.000 -99.000 -99.000   0.225   0.049   0.018   0.008   0.004   0.003   0.002   0.004   0.002   0.080   0.080
   15 204   128  15.60  24.50  18.30 -99.000   3.525   2.476   1.051   1.101   0.743   0.357   0.000   0.001  512.85  381.71  246.06  135.61    0.00    0.04 -99.000 -99.000 -99.000   0.268   0.048   0.018   0.008   0.004   0.003   0.002   0.004   0.002   0.074   0.074
   15 205   129  23.70  29.10  14.80 -99.000   5.518   3.786   1.736   1.091   0.695   0.395   0.000   0.001  518.36  382.80  246.76  136.01    0.00    0.04 -99.000 -99.000 -99.000   0.306   0.048   0.018   0.008   0.004   0.003   0.002   0.004   0.002   0.069   0.069
   15 206   130  22.00  25.00  12.60 -99.000   4.805   3.216   1.593   0.989   0.612   0.376   0.000   0.001  523.17  383.79  247.37  136.38    0.00    0.04 -99.000 -99.000 -99.000   0.288   0.047   0.018   0.008   0.004   0.003   0.002   0.004   0.002   0.061   0.065
   15 207   131  24.10  23.10   8.00 -99.000   4.955   3.234   1.725   0.979   0.579   0.399   0.000   0.001  528.12  384.77  247.95  136.78    0.00    0.04 -99.000 -99.000 -99.000   0.311   0.047   0.017   0.008   0.004   0.003   0.002   0.004   0.002   0.058   0.058
   15 208   132  20.40  23.80  12.90 -99.000   4.426   2.815   1.614   1.119   0.550   0.568   0.000   0.001  532.55  385.89  248.50  137.35    0.00    0.04 -99.000 -99.000 -99.000   0.480   0.047   0.017   0.008   0.004   0.003   0.002   0.004   0.002   0.055   0.055
   15 209   133  20.10  22.80  12.10 -99.000   4.309   2.668   1.644   3.408   2.668   0.739   0.000   0.001  536.86  389.30  251.17  138.09    0.00    0.04 -99.000 -99.000 -99.000   0.653   0.047   0.017   0.008   0.004   0.003   0.002   0.004   0.002   0.267   0.754
   15 210   134  20.30  20.50   9.50 -99.000   4.124   2.516   1.612   1.448   0.887   0.561   0.000   0.001  540.98  390.75  252.05  138.65    0.00    0.04 -99.000 -99.000 -99.000   0.475   0.046   0.017   0.008   0.004   0.003   0.002   0.004   0.002   0.089   0.089
   15 211   135  23.10  21.80   7.50 -99.000   4.704   2.791   1.916   1.517   0.987   0.530   0.000   0.001  545.69  392.26  253.04  139.18    0.00    0.04 -99.000 -99.000 -99.000   0.443   0.046   0.017   0.008   0.004   0.003   0.002   0.004   0.002   0.099   0.099
   15 212   136  22.90  23.50   9.30 -99.000   4.856   2.742   2.117   0.919   0.473   0.445   0.000   0.001  550.54  393.18  253.51  139.62    0.00    0.04 -99.000 -99.000 -99.000   0.359   0.046   0.017   0.008   0.004   0.003   0.002   0.004   0.002   0.047   0.056
   15 213   137  16.50  20.70  13.20 -99.000   3.502   1.876   1.629   0.869   0.455   0.413   0.000   0.001  554.04  394.05  253.97  140.04    0.00    0.05 -99.000 -99.000 -99.000   0.327   0.045   0.017   0.007   0.004   0.003   0.002   0.004   0.002   0.046   0.046
   15 214   138  21.00  25.10  12.90 -99.000   4.717   2.377   2.343   0.827   0.439   0.387   0.000   0.001  558.76  394.88  254.41  140.42    0.00    0.05 -99.000 -99.000 -99.000   0.302   0.045   0.017   0.007   0.004   0.003   0.002   0.004   0.002   0.044   0.044
   15 215   139  24.70  28.30  11.20 -99.000   5.713   2.690   3.026   0.788   0.423   0.364   0.000   0.001  564.47  395.67  254.83  140.79    0.00    0.05 -99.000 -99.000 -99.000   0.280   0.045   0.017   0.007   0.004   0.003   0.002   0.004   0.002   0.042   0.042
   15 216   140  26.30  31.60  12.10 -99.000   6.394   2.779   3.618   0.749   0.409   0.339   0.000   0.001  570.87  396.41  255.24  141.13    0.00    0.05 -99.000 -99.000 -99.000   0.254   0.045   0.017   0.007   0.004   0.003   0.002   0.004   0.002   0.041   0.041
   15 217   141  23.90  29.90  13.60 -99.000   5.792   2.297   3.497   0.712   0.396   0.315   0.000   0.001  576.66  397.13  255.64  141.44    0.00    0.05 -99.000 -99.000 -99.000   0.232   0.044   0.017   0.007   0.004   0.003   0.002   0.004   0.002   0.040   0.040
   15 218   142  26.60  33.60  13.20 -99.000   6.736   2.390   4.349   0.679   0.384   0.294   0.000   0.001  583.40  397.81  256.02  141.74    0.00    0.05 -99.000 -99.000 -99.000   0.211   0.044   0.017   0.007   0.004   0.003   0.002   0.004   0.002   0.038   0.038
   15 219   143  26.70  35.20  14.30 -99.000   7.037   2.196   4.843   0.648   0.373   0.275   0.000   0.001  590.43  398.45  256.39  142.01    0.00    0.05 -99.000 -99.000 -99.000   0.192   0.044   0.016   0.007   0.004   0.003   0.002   0.004   0.002   0.037   0.037
   15 220   144  25.70  34.90  15.40 -99.000   6.784   1.803   4.982   0.705   0.362   0.342   0.000   0.001  597.22  399.16  256.76  142.35    0.00    0.05 -99.000 -99.000 -99.000   0.260   0.044   0.016   0.007   0.004   0.003   0.002   0.004   0.002   0.036   0.036
   15 221   145  24.00  33.30  16.10 -99.000   6.336   1.370   4.967   0.757   0.352   0.404   0.000   0.001  603.55  399.92  257.11  142.76    0.00    0.05 -99.000 -99.000 -99.000   0.321   0.043   0.016   0.007   0.004   0.003   0.002   0.004   0.002   0.035   0.035

*DSSAT Cropping System Model Ver. 4.8.5.000 -release  OCT 24, 2025 14:14:59

*RUN   2        : 2                         CSCER048 TUDU1501    2
 MODEL          : CSCER048 - Wheat
 EXPERIMENT     : TUDU1501 WH
 DATA PATH      :
 TREATMENT  2   : 2                         CSCER048
  
!                                                                                                                                                                                        Soil evaporation (mm/d) by soil depth (cm):
!                                                                                                                                                                                        0-5    5-15   15-30   30-45   45-60   60-80  80-100 100-150 150-200
@YEAR DOY   DAS   SRAA  TMAXA  TMINA    REFA    EOAA    EOPA    EOSA    ETAA    EPAA    ESAA    EFAA    EMAA    EOAC    ETAC    EPAC    ESAC    EFAC    EMAC    KCAA    KBSA    KEAA    ES1D    ES2D    ES3D    ES4D    ES5D    ES6D    ES7D    ES8D    ES9D   TRWUD   TWUPD
   15 077     1  14.30  14.60   0.70 -99.000   2.776   0.000   2.776   1.110   0.000   1.110   0.000   0.000    2.78    1.11    0.00    1.11    0.00    0.00 -99.000 -99.000 -99.000   0.913   0.121   0.038   0.015   0.008   0.006   0.003   0.004   0.002   0.000   0.000
   15 078     2  14.80  13.60  -1.00 -99.000   2.772   0.000   2.772   1.127   0.000   1.127   0.000   0.000    5.55    2.24    0.00    2.24    0.00    0.00 -99.000 -99.000 -99.000   0.923   0.126   0.039   0.015   0.008   0.006   0.003   0.004   0.002   0.000   0.000
   15 079     3  15.70  13.30  -2.60 -99.000   2.864   0.000   2.864   1.035   0.000   1.035   0.000   0.000    8.41    3.27    0.00    3.27    0.00    0.00 -99.000 -99.000 -99.000   0.832   0.125   0.039   0.015   0.008   0.006   0.003   0.004   0.002   0.000   0.000
   15 080     4  16.60  14.00  -3.40 -99.000   3.025   0.000   3.025   1.076   0.000   1.076   0.000   0.000   11.44    4.35    0.00    4.35    0.00    0.00 -99.000 -99.000 -99.000   0.873   0.126   0.039   0.015   0.008   0.006   0.003   0.004   0.002   0.000   0.000
   15 081     5   7.10   5.70   2.60 -99.000   1.210   0.000   1.210   1.143   0.000   1.143   0.000   0.000   12.65    5.49    0.00    5.49    0.00    0.00 -99.000 -99.000 -99.000   0.940   0.126   0.039   0.015   0.008   0.006   0.003   0.004   0.002   0.000   0.000
   15 082     6  10.90   6.30  -0.80 -99.000   1.800   0.000   1.800   1.085   0.000   1.085   0.000   0.000   14.45    6.58    0.00    6.58    0.00    0.00 -99.000 -99.000 -99.000   0.882   0.126   0.039   0.015   0.008   0.006   0.003   0.004   0.002   0.000   0.000
   15 083     7  17.10  15.20  -2.00 -99.000   3.234   0.000   3.234   0.998   0.000   0.998   0.000   0.000   17.68    7.57    0.00    7.57    0.00    0.00 -99.000 -99.000 -99.000   0.796   0.125   0.039   0.015   0.008   0.006   0.003   0.004   0.002   0.000   0.000
   15 084     8  14.70  15.20   2.70 -99.000   2.910   0.000   2.910   0.919   0.000   0.919   0.000   0.000   20.59    8.49    0.00    8.49    0.00    0.00 -99.000 -99.000 -99.000   0.717   0.124   0.039   0.015   0.008   0.006   0.003   0.004   0.002   0.000   0.000
   15 085     9   7.10   7.70   4.90 -99.000   1.272   0.000   1.272   0.882   0.000   0.882   0.000   0.000   21.86    9.37    0.00    9.37    0.00    0.00 -99.000 -99.000 -99.000   0.681   0.123   0.039   0.015   0.008   0.006   0.003   0.004   0.002   0.000   0.000
   15 086    10   9.80   9.10   3.80 -99.000   1.773   0.015   1.758   0.921   0.015   0.906   0.000   0.000   23.64   10.30    0.02   10.28    0.00    0.00 -99.000 -99.000 -99.000   0.707   0.123   0.039   0.015   0.008   0.006   0.003   0.004   0.002   0.002   0.006
   15 087    11  14.20  11.80   1.00 -99.000   2.606   0.045   2.561   0.942   0.045   0.897   0.000   0.000   26.24   11.24    0.06   11.18    0.00    0.00 -99.000 -99.000 -99.000   0.698   0.122   0.039   0.015   0.008   0.006   0.003   0.004   0.002   0.005   0.008
   15 088    12  10.70  12.50   6.50 -99.000   2.096   0.054   2.042   0.927   0.054   0.873   0.000   0.000   28.34   12.16    0.11   12.05    0.00    0.00 -99.000 -99.000 -99.000   0.675   0.121   0.039   0.015   0.008   0.006   0.003   0.004   0.002   0.005   0.009
   15 089    13  10.50   9.50   3.80 -99.000   1.901   0.085   1.816   1.215   0.085   1.130   0.000   0.000   30.24   13.38    0.20   13.18    0.00    0.00 -99.000 -99.000 -99.000   0.928   0.125   0.039   0.015   0.008   0.006   0.003   0.004   0.002   0.008   0.011
   15 090    14  15.60  13.90   1.60 -99.000   3.014   0.162   2.852   2.993   0.140   2.852   0.000   0.000   33.25   16.37    0.34   16.03    0.00    0.00 -99.000 -99.000 -99.000   0.602   0.413   0.355   0.256   0.202   0.218   0.183   0.349   0.276   0.014   0.014
   15 091    15  11.30   6.50   0.20 -99.000   1.897   0.117   1.780   1.897   0.117   1.780   0.000   0.000   35.15   18.27    0.46   17.81    0.00    0.00 -99.000 -99.000 -99.000   0.386   0.260   0.221   0.159   0.125   0.134   0.112   0.214   0.170   0.012   0.019
   15 092    16  11.00   6.00   0.20 -99.000   1.833   0.117   1.717   1.834   0.117   1.717   0.000   0.000   36.98   20.10    0.57   19.53    0.00    0.00 -99.000 -99.000 -99.000   0.386   0.252   0.212   0.152   0.119   0.128   0.106   0.202   0.160   0.012   0.021
   15 093    17  15.30   9.70  -1.40 -99.000   2.682   0.176   2.507   2.682   0.176   2.507   0.000   0.000   39.66   22.79    0.75   22.04    0.00    0.00 -99.000 -99.000 -99.000   0.514   0.366   0.316   0.228   0.179   0.194   0.161   0.307   0.243   0.018   0.024
   15 094    18   8.60   5.30   1.90 -99.000   1.435   0.098   1.337   1.435   0.098   1.337   0.000   0.000   41.10   24.22    0.85   23.37    0.00    0.00 -99.000 -99.000 -99.000   0.280   0.194   0.167   0.121   0.095   0.103   0.085   0.163   0.129   0.010   0.028
   15 095    19  14.00   6.90  -2.00 -99.000   2.306   0.163   2.144   2.307   0.163   2.144   0.000   0.000   43.41   26.53    1.01   25.52    0.00    0.00 -99.000 -99.000 -99.000   0.428   0.311   0.271   0.196   0.155   0.168   0.139   0.266   0.210   0.016   0.030
   15 096    20  13.90   6.20  -2.40 -99.000   2.232   0.160   2.072   2.232   0.160   2.072   0.000   0.000   45.64   28.76    1.17   27.59    0.00    0.00 -99.000 -99.000 -99.000   0.392   0.301   0.265   0.193   0.152   0.164   0.137   0.262   0.207   0.016   0.033
   15 097    21  16.30   8.70  -2.90 -99.000   2.716   0.197   2.519   2.716   0.197   2.519   0.000   0.000   48.35   31.47    1.37   30.11    0.00    0.00 -99.000 -99.000 -99.000   0.461   0.365   0.324   0.237   0.186   0.202   0.168   0.321   0.254   0.020   0.035
   15 098    22  17.80  13.40  -0.20 -99.000   3.307   0.245   3.063   1.337   0.245   1.092   0.000   0.000   51.66   32.81    1.61   31.20    0.00    0.00 -99.000 -99.000 -99.000   0.894   0.122   0.039   0.015   0.008   0.006   0.003   0.004   0.002   0.024   0.039
   15 099    23  19.20  18.00   2.40 -99.000   3.912   0.322   3.591   1.316   0.322   0.994   0.000   0.000   55.57   34.13    1.93   32.19    0.00    0.00 -99.000 -99.000 -99.000   0.798   0.120   0.039   0.015   0.008   0.006   0.003   0.004   0.002   0.032   0.046
   15 100    24  21.60  21.00   1.70 -99.000   4.532   0.462   4.071   1.362   0.462   0.900   0.000   0.000   60.10   35.49    2.40   33.09    0.00    0.00 -99.000 -99.000 -99.000   0.705   0.119   0.038   0.015   0.008   0.006   0.003   0.004   0.002   0.046   0.054
   15 101    25  17.70  18.10   5.30 -99.000   3.661   0.447   3.214   1.252   0.447   0.805   0.000   0.000   63.77   36.74    2.84   33.90    0.00    0.00 -99.000 -99.000 -99.000   0.612   0.117   0.038   0.015   0.008   0.006   0.003   0.004   0.002   0.045   0.066
   15 102    26  18.20  18.90   5.70 -99.000   3.797   0.536   3.262   1.078   0.360   0.718   0.000   0.000   67.56   37.82    3.20   34.62    0.00    0.00 -99.000 -99.000 -99.000   0.527   0.115   0.038   0.015   0.008   0.006   0.003   0.004   0.002   0.036   0.036
   15 103    27  18.30  18.40   5.30 -99.000   3.760   0.579   3.182   0.966   0.309   0.656   0.000   0.000   71.32   38.79    3.51   35.27    0.00    0.00 -99.000 -99.000 -99.000   0.467   0.113   0.038   0.015   0.008   0.006   0.003   0.004   0.002   0.031   0.031
   15 104    28  18.60  18.80   5.40 -99.000   3.837   0.605   3.233   0.911   0.305   0.607   0.000   0.000   75.16   39.70    3.82   35.88    0.00    0.00 -99.000 -99.000 -99.000   0.420   0.111   0.038   0.015   0.008   0.006   0.003   0.004   0.002   0.030   0.030
   15 105    29  21.70  23.30   5.50 -99.000   4.756   0.760   3.997   0.869   0.306   0.563   0.000   0.000   79.92   40.57    4.12   36.44    0.00    0.00 -99.000 -99.000 -99.000   0.379   0.109   0.038   0.015   0.008   0.006   0.003   0.004   0.002   0.031   0.031
   15 106    30  18.10  21.80   9.60 -99.000   4.025   0.652   3.374   0.852   0.322   0.530   0.000   0.000   83.94   41.42    4.45   36.97    0.00    0.00 -99.000 -99.000 -99.000   0.348   0.107   0.038   0.015   0.008   0.006   0.003   0.004   0.002   0.032   0.032
   15 107    31  17.40  16.40   5.30 -99.000   3.446   0.570   2.876   3.214   0.340   2.874   0.000   0.000   87.39   44.63    4.78   39.85    0.00    0.00 -99.000 -99.000 -99.000   0.465   0.440   0.383   0.277   0.216   0.233   0.194   0.371   0.294   0.034   0.034
   15 108    32  16.00  10.10   0.90 -99.000   2.839   0.477   2.363   2.838   0.477   2.361   0.000   0.000   90.23   47.47    5.26   42.21    0.00    0.00 -99.000 -99.000 -99.000   0.481   0.359   0.297   0.213   0.167   0.180   0.150   0.287   0.227   0.048   0.119
   15 109    33  19.10  12.90  -0.10 -99.000   3.478   0.591   2.888   3.476   0.591   2.884   0.000   0.000   93.70   50.95    5.85   45.09    0.00    0.00 -99.000 -99.000 -99.000   0.541   0.427   0.368   0.267   0.210   0.227   0.191   0.364   0.288   0.059   0.130
   15 110    34  21.80  16.50  -0.20 -99.000   4.176   0.723   3.455   4.173   0.723   3.450   0.000   0.000   97.88   55.12    6.58   48.54    0.00    0.00 -99.000 -99.000 -99.000   0.604   0.509   0.446   0.325   0.257   0.278   0.233   0.445   0.352   0.072   0.144
   15 111    35  22.90  19.70   1.60 -99.000   4.663   0.830   3.834   1.812   0.830   0.982   0.000   0.000  102.54   56.93    7.41   49.53    0.00    0.00 -99.000 -99.000 -99.000   0.787   0.120   0.038   0.015   0.008   0.006   0.003   0.004   0.002   0.083   0.161
   15 112    36  22.50  19.80   2.60 -99.000   4.605   0.858   3.748   1.716   0.858   0.858   0.000   0.000  107.15   58.65    8.26   50.38    0.00    0.00 -99.000 -99.000 -99.000   0.664   0.118   0.038   0.015   0.008   0.006   0.003   0.004   0.002   0.086   0.179
   15 113    37  19.10  12.20   0.00 -99.000   3.367   0.658   2.711   1.402   0.658   0.744   0.000   0.000  110.51   60.05    8.92   51.13    0.00    0.00 -99.000 -99.000 -99.000   0.553   0.116   0.038   0.015   0.008   0.006   0.003   0.004   0.002   0.066   0.128
   15 114    38  23.90  18.20  -0.70 -99.000   4.583   0.909   3.676   1.574   0.909   0.665   0.000   0.000  115.10   61.62    9.83   51.79    0.00    0.00 -99.000 -99.000 -99.000   0.476   0.114   0.038   0.015   0.008   0.006   0.003   0.004   0.002   0.091   0.095
   15 115    39  22.60  19.70   3.10 -99.000   4.584   0.938   3.648   1.613   0.938   0.675   0.000   0.000  119.68   63.24   10.77   52.47    0.00    0.00 -99.000 -99.000 -99.000   0.491   0.109   0.037   0.015   0.008   0.006   0.003   0.004   0.002   0.094   0.097
   15 116    40  17.60  20.00  10.10 -99.000   3.829   0.822   3.008   1.581   0.822   0.759   0.000   0.000  123.51   64.82   11.59   53.23    0.00    0.00 -99.000 -99.000 -99.000   0.580   0.105   0.037   0.015   0.008   0.006   0.003   0.004   0.002   0.082   0.132
   15 117    41  22.80  22.80   6.30 -99.000   4.979   1.140   3.841   2.122   1.140   0.982   0.000   0.000  128.49   66.94   12.73   54.21    0.00    0.00 -99.000 -99.000 -99.000   0.804   0.104   0.037   0.015   0.007   0.006   0.003   0.004   0.002   0.114   0.238
   15 118    42  15.60  12.10   4.50 -99.000   2.894   0.702   2.193   2.893   0.702   2.190   0.000   0.000  131.38   69.83   13.43   56.40    0.00    0.00 -99.000 -99.000 -99.000   0.458   0.288   0.266   0.201   0.160   0.173   0.146   0.278   0.220   0.070   0.305
   15 119    43  20.00  13.10   0.80 -99.000   3.653   0.911   2.744   3.651   0.911   2.741   0.000   0.000  135.04   73.48   14.34   59.14    0.00    0.00 -99.000 -99.000 -99.000   0.558   0.385   0.331   0.250   0.198   0.216   0.181   0.347   0.275   0.091   0.323
   15 120    44  18.20  15.40   5.30 -99.000   3.579   0.909   2.672   3.577   0.909   2.668   0.000   0.000  138.62   77.06   15.25   61.81    0.00    0.00 -99.000 -99.000 -99.000   0.513   0.384   0.325   0.246   0.195   0.213   0.179   0.343   0.272   0.091   0.348
   15 121    45   7.90   9.60   7.70 -99.000   1.451   0.383   1.069   1.451   0.383   1.068   0.000   0.000  140.07   78.51   15.64   62.88    0.00    0.00 -99.000 -99.000 -99.000   0.219   0.168   0.137   0.096   0.074   0.079   0.066   0.127   0.101   0.038   0.371
   15 122    46  14.40  13.60   7.40 -99.000   2.836   0.769   2.068   2.834   0.769   2.066   0.000   0.000  142.90   81.35   16.40   64.94    0.00    0.00 -99.000 -99.000 -99.000   0.433   0.327   0.277   0.190   0.144   0.150   0.124   0.235   0.186   0.077   0.381
   15 123    47  14.40  16.30  10.20 -99.000   3.008   0.846   2.163   3.006   0.846   2.161   0.000   0.000  145.91   84.35   17.25   67.10    0.00    0.00 -99.000 -99.000 -99.000   0.456   0.345   0.286   0.201   0.153   0.158   0.129   0.242   0.191   0.085   0.401
   15 124    48  15.00  20.70  14.20 -99.000   3.449   1.013   2.437   3.448   1.013   2.434   0.000   0.000  149.36   87.80   18.26   69.54    0.00    0.00 -99.000 -99.000 -99.000   0.484   0.374   0.316   0.227   0.176   0.186   0.154   0.290   0.229   0.101   0.421
   15 125    49  21.30  25.90  12.90 -99.000   5.112   1.586   3.527   5.109   1.586   3.523   0.000   0.000  154.47   92.91   19.85   73.06    0.00    0.00 -99.000 -99.000 -99.000   0.696   0.526   0.454   0.330   0.257   0.272   0.226   0.427   0.336   0.159   0.443
   15 126    50  14.70  14.60   8.50 -99.000   2.912   0.961   1.953   2.911   0.961   1.951   0.000   0.000  157.39   95.82   20.81   75.01    0.00    0.00 -99.000 -99.000 -99.000   0.401   0.303   0.257   0.180   0.139   0.146   0.120   0.227   0.177   0.096   0.475
   15 127    51  18.90  18.00   8.00 -99.000   3.935   1.326   2.611   3.933   1.326   2.608   0.000   0.000  161.32   99.75   22.14   77.62    0.00    0.00 -99.000 -99.000 -99.000   0.515   0.403   0.344   0.241   0.186   0.198   0.164   0.313   0.244   0.133   0.499
   15 128    52  22.00  22.20   8.80 -99.000   4.836   1.668   3.170   4.833   1.668   3.165   0.000   0.000  166.16  104.59   23.80   80.78    0.00    0.00 -99.000 -99.000 -99.000   0.579   0.471   0.415   0.297   0.233   0.249   0.209   0.399   0.313   0.167   0.531
   15 129    53  15.70  17.60  10.80 -99.000   3.283   1.163   2.121   3.279   1.163   2.116   0.000   0.000  169.44  107.87   24.97   82.90    0.00    0.00 -99.000 -99.000 -99.000   0.397   0.308   0.273   0.198   0.156   0.167   0.141   0.267   0.210   0.116   0.568
   15 130    54  20.60  19.00   7.40 -99.000   4.273   1.551   2.724   4.267   1.551   2.716   0.000   0.000  173.71  112.13   26.52   85.61    0.00    0.00 -99.000 -99.000 -99.000   0.515   0.388   0.348   0.254   0.200   0.215   0.181   0.343   0.271   0.155   0.595
   15 131    55  24.50  21.80   5.60 -99.000   5.162   1.915   3.250   5.152   1.915   3.238   0.000   0.000  178.87  117.29   28.43   88.85    0.00    0.00 -99.000 -99.000 -99.000   0.565   0.458   0.420   0.309   0.245   0.264   0.222   0.421   0.333   0.191   0.631
   15 132    56  26.70  27.50   8.40 -99.000   6.169   2.342   3.830   3.266   2.342   0.925   0.000   0.000  185.04  120.55   30.77   89.78    0.00    0.00 -99.000 -99.000 -99.000   0.739   0.111   0.037   0.015   0.008   0.006   0.003   0.004   0.002   0.234   0.675
   15 133    57  18.10  22.10  13.40 -99.000   4.047   1.596   2.453   2.602   1.596   1.006   0.000   0.000  189.09  123.15   32.37   90.78    0.00    0.00 -99.000 -99.000 -99.000   0.822   0.110   0.037   0.015   0.008   0.006   0.003   0.004   0.002   0.160   0.724
   15 134    58  16.60  18.60  11.40 -99.000   3.502   1.470   2.034   3.493   1.470   2.023   0.000   0.000  192.59  126.65   33.84   92.81    0.00    0.00 -99.000 -99.000 -99.000   0.389   0.275   0.249   0.188   0.151   0.164   0.138   0.262   0.207   0.147   0.757
   15 135    59  17.00  15.20   7.70 -99.000   3.289   1.442   1.850   2.526   1.442   1.084   0.000   0.000  195.88  129.17   35.28   93.89    0.00    0.00 -99.000 -99.000 -99.000   0.901   0.110   0.036   0.014   0.007   0.006   0.003   0.004   0.002   0.144   0.789
   15 136    60  23.40  19.80   5.70 -99.000   4.719   2.136   2.586   3.111   2.136   0.975   0.000   0.000  200.60  132.28   37.42   94.86    0.00    0.00 -99.000 -99.000 -99.000   0.795   0.107   0.035   0.014   0.007   0.006   0.003   0.004   0.002   0.214   0.824
   15 137    61  16.90  17.80  10.50 -99.000   3.442   1.614   1.831   2.498   1.614   0.883   0.000   0.000  204.04  134.78   39.03   95.75    0.00    0.00 -99.000 -99.000 -99.000   0.708   0.103   0.035   0.014   0.007   0.006   0.003   0.004   0.002   0.161   0.872
   15 138    62  25.30  23.50   7.30 -99.000   5.385   2.623   2.766   3.442   2.623   0.819   0.000   0.000  209.43  138.22   41.65   96.57    0.00    0.00 -99.000 -99.000 -99.000   0.647   0.100   0.034   0.014   0.007   0.006   0.003   0.004   0.002   0.262   0.908
   15 139    63  17.90  18.00   9.90 -99.000   3.599   1.825   1.777   2.914   1.825   1.089   0.000   0.000  213.03  141.14   43.48   97.66    0.00    0.00 -99.000 -99.000 -99.000   0.905   0.113   0.034   0.014   0.007   0.006   0.003   0.004   0.002   0.182   0.750
   15 140    64  11.50  10.00   6.70 -99.000   2.015   1.059   0.958   2.007   1.059   0.949   0.000   0.000  215.04  143.14   44.54   98.60    0.00    0.00 -99.000 -99.000 -99.000   0.217   0.150   0.113   0.080   0.063   0.069   0.058   0.111   0.088   0.106   1.003
   15 141    65  14.90  12.50   7.00 -99.000   2.719   1.458   1.263   2.708   1.458   1.250   0.000   0.000  217.76  145.85   46.00   99.85    0.00    0.00 -99.000 -99.000 -99.000   0.263   0.199   0.164   0.112   0.085   0.091   0.076   0.145   0.115   0.146   1.029
   15 142    66  21.20  15.40   4.30 -99.000   3.910   2.154   1.759   3.895   2.154   1.741   0.000   0.000  221.67  149.75   48.15  101.60    0.00    0.00 -99.000 -99.000 -99.000   0.335   0.263   0.226   0.162   0.125   0.135   0.112   0.213   0.169   0.215   1.064
   15 143    67  20.00  16.60   6.80 -99.000   3.822   2.166   1.660   3.808   2.166   1.642   0.000   0.000  225.49  153.56   50.32  103.24    0.00    0.00 -99.000 -99.000 -99.000   0.317   0.242   0.211   0.152   0.119   0.128   0.107   0.204   0.161   0.217   1.114
   15 144    68  17.10  15.70   8.60 -99.000   3.271   1.940   1.334   3.260   1.940   1.320   0.000   0.000  228.76  156.81   52.26  104.56    0.00    0.00 -99.000 -99.000 -99.000   0.260   0.191   0.168   0.122   0.096   0.104   0.086   0.164   0.130   0.194   1.162
   15 145    69  19.60  19.20   9.90 -99.000   3.963   2.452   1.515   3.950   2.452   1.498   0.000   0.000  232.73  160.76   54.71  106.05    0.00    0.00 -99.000 -99.000 -99.000   0.287   0.215   0.191   0.139   0.110   0.119   0.099   0.189   0.149   0.245   1.204
   15 146    70  17.10  15.10   8.10 -99.000   3.191   2.066   1.128   3.181   2.066   1.115   0.000   0.000  235.92  163.95   56.77  107.17    0.00    0.00 -99.000 -99.000 -99.000   0.202   0.159   0.143   0.105   0.083   0.090   0.076   0.144   0.114   0.207   1.253
   15 147    71  19.90  14.00   4.50 -99.000   3.507   2.345   1.166   3.367   2.345   1.021   0.000   0.000  239.42  167.31   59.12  108.19    0.00    0.00 -99.000 -99.000 -99.000   0.832   0.115   0.037   0.015   0.007   0.006   0.003   0.004   0.002   0.235   1.298
   15 148    72  26.60  20.30   3.50 -99.000   5.070   3.465   1.610   4.354   3.465   0.889   0.000   0.000  244.49  171.67   62.58  109.08    0.00    0.00 -99.000 -99.000 -99.000   0.704   0.111   0.037   0.014   0.007   0.006   0.003   0.004   0.002   0.346   1.350
   15 149    73  25.70  23.40   7.80 -99.000   5.283   3.713   1.574   4.456   3.713   0.743   0.000   0.000  249.78  176.12   66.30  109.82    0.00    0.00 -99.000 -99.000 -99.000   0.565   0.106   0.036   0.014   0.007   0.006   0.003   0.004   0.002   0.371   1.342
   15 150    74  17.10  18.40  11.50 -99.000   3.382   2.456   0.929   3.081   2.456   0.624   0.000   0.000  253.16  179.20   68.75  110.45    0.00    0.00 -99.000 -99.000 -99.000   0.453   0.100   0.035   0.014   0.007   0.006   0.003   0.004   0.002   0.246   1.167
   15 151    75  22.30  21.20   9.60 -99.000   4.485   3.347   1.142   3.925   3.347   0.578   0.000   0.000  257.64  183.13   72.10  111.02    0.00    0.00 -99.000 -99.000 -99.000   0.413   0.095   0.034   0.014   0.007   0.006   0.003   0.004   0.002   0.335   1.195
   15 152    76  24.70  26.10  11.90 -99.000   5.371   4.108   1.268   4.647   4.108   0.539   0.000   0.000  263.01  187.78   76.21  111.56    0.00    0.01 -99.000 -99.000 -99.000   0.382   0.089   0.032   0.013   0.007   0.006   0.003   0.004   0.002   0.411   1.241
   15 153    77  22.70  25.70  13.80 -99.000   4.965   3.950   1.019   4.441   3.938   0.502   0.000   0.000  267.98  192.22   80.15  112.07    0.00    0.01 -99.000 -99.000 -99.000   0.355   0.081   0.031   0.013   0.007   0.005   0.003   0.004   0.002   0.394   1.270
   15 154    78  26.20  28.40  12.50 -99.000   5.833   4.794   1.044   5.256   4.794   0.462   0.000   0.000  273.81  197.47   84.94  112.53    0.00    0.01 -99.000 -99.000 -99.000   0.323   0.074   0.029   0.013   0.007   0.005   0.003   0.004   0.002   0.479   1.101
   15 155    79  24.80  26.70  12.60 -99.000   5.397   4.553   0.850   4.978   4.553   0.425   0.000   0.000  279.21  202.45   89.49  112.95    0.00    0.01 -99.000 -99.000 -99.000   0.294   0.070   0.027   0.012   0.007   0.005   0.003   0.004   0.002   0.455   1.028
   15 156    80  23.50  28.10  15.40 -99.000   5.301   4.565   0.741   4.959   4.565   0.394   0.000   0.001  284.51  207.41   94.06  113.35    0.00    0.01 -99.000 -99.000 -99.000   0.268   0.067   0.025   0.012   0.007   0.005   0.003   0.004   0.002   0.456   0.879
   15 157    81  27.40  30.30  13.20 -99.000   6.219   5.447   0.778   5.973   5.447   0.526   0.000   0.001  290.73  213.38   99.50  113.87    0.00    0.01 -99.000 -99.000 -99.000   0.405   0.065   0.024   0.011   0.006   0.005   0.003   0.004   0.002   0.545   0.738
   15 158    82  21.90  26.90  16.00 -99.000   4.882   4.339   0.548   4.878   4.339   0.539   0.000   0.001  295.61  218.26  103.84  114.41    0.00    0.01 -99.000 -99.000 -99.000   0.441   0.052   0.019   0.009   0.005   0.004   0.003   0.003   0.002   0.434   0.919
   15 159    83  18.70  20.10  12.20 -99.000   3.705   3.356   0.353   3.703   3.356   0.347   0.000   0.001  299.32  221.97  107.20  114.76    0.00    0.01 -99.000 -99.000 -99.000   0.300   0.029   0.008   0.004   0.002   0.002   0.001   0.001   0.001   0.336   0.591
   15 160    84   9.90  13.40  11.20 -99.000   1.779   1.609   0.172   1.779   1.609   0.169   0.000   0.001  301.09  223.74  108.81  114.93    0.00    0.01 -99.000 -99.000 -99.000   0.043   0.023   0.014   0.011   0.010   0.013   0.012   0.024   0.019   0.161   1.496
   15 161    85  17.60  18.20  11.20 -99.000   3.381   3.053   0.331   3.379   3.053   0.325   0.000   0.001  304.48  227.12  111.86  115.25    0.00    0.01 -99.000 -99.000 -99.000   0.074   0.048   0.027   0.023   0.020   0.026   0.024   0.047   0.037   0.305   1.508
   15 162    86  19.10  22.40  14.20 -99.000   3.974   3.583   0.395   3.972   3.583   0.388   0.000   0.001  308.45  231.10  115.44  115.64    0.00    0.01 -99.000 -99.000 -99.000   0.329   0.040   0.008   0.004   0.002   0.002   0.001   0.002   0.001   0.358   1.524
   15 163    87  26.70  28.90  12.90 -99.000   5.943   5.347   0.602   5.939   5.347   0.591   0.000   0.001  314.39  237.03  120.79  116.23    0.00    0.01 -99.000 -99.000 -99.000   0.488   0.069   0.015   0.006   0.004   0.003   0.002   0.003   0.001   0.535   1.503
   15 164    88  21.90  25.50  14.70 -99.000   4.746   4.260   0.490   4.743   4.260   0.482   0.000   0.001  319.14  241.78  125.05  116.71    0.00    0.01 -99.000 -99.000 -99.000   0.406   0.050   0.011   0.005   0.003   0.002   0.002   0.002   0.001   0.426   0.943
   15 165    89  20.70  24.90  15.30 -99.000   4.487   4.019   0.473   4.485   4.019   0.465   0.000   0.001  323.62  246.26  129.07  117.18    0.00    0.01 -99.000 -99.000 -99.000   0.116   0.073   0.041   0.029   0.025   0.034   0.033   0.063   0.050   0.402   1.495
   15 166    90  11.60  16.60  13.60 -99.000   2.232   1.995   0.240   2.231   1.995   0.235   0.000   0.001  325.86  248.49  131.07  117.41    0.00    0.01 -99.000 -99.000 -99.000   0.056   0.043   0.027   0.014   0.011   0.015   0.015   0.029   0.023   0.199   1.921
   15 167    91  18.40  19.00  11.40 -99.000   3.588   3.201   0.391   3.586   3.201   0.384   0.000   0.001  329.44  252.08  134.27  117.80    0.00    0.01 -99.000 -99.000 -99.000   0.082   0.064   0.051   0.029   0.019   0.026   0.025   0.049   0.039   0.320   2.165
   15 168    92  20.50  19.50  10.10 -99.000   3.974   3.539   0.440   3.972   3.539   0.432   0.000   0.001  333.42  256.05  137.81  118.23    0.00    0.02 -99.000 -99.000 -99.000   0.085   0.068   0.058   0.038   0.022   0.030   0.029   0.057   0.045   0.354   2.195
   15 169    93  18.80  17.20   9.30 -99.000   3.505   3.116   0.394   3.503   3.116   0.387   0.000   0.001  336.92  259.55  140.92  118.62    0.00    0.02 -99.000 -99.000 -99.000   0.083   0.061   0.051   0.035   0.019   0.025   0.025   0.049   0.039   0.312   2.229
   15 170    94  14.40  15.50  10.90 -99.000   2.666   2.366   0.303   2.665   2.366   0.298   0.000   0.001  339.59  262.22  143.29  118.91    0.00    0.02 -99.000 -99.000 -99.000   0.063   0.046   0.039   0.028   0.015   0.019   0.020   0.038   0.030   0.237   2.260
   15 171    95  16.00  15.10   9.40 -99.000   2.902   2.571   0.334   2.900   2.571   0.328   0.000   0.001  342.49  265.12  145.86  119.24    0.00    0.02 -99.000 -99.000 -99.000   0.066   0.050   0.043   0.031   0.017   0.022   0.022   0.043   0.034   0.257   2.412
   15 172    96  19.10  17.60   9.50 -99.000   3.591   3.177   0.419   3.589   3.177   0.412   0.000   0.001  346.08  268.71  149.03  119.66    0.00    0.02 -99.000 -99.000 -99.000   0.080   0.062   0.055   0.040   0.022   0.028   0.028   0.054   0.043   0.318   2.420
   15 173    97  19.60  20.50  11.90 -99.000   3.914   3.456   0.463   3.912   3.456   0.455   0.000   0.001  350.00  272.62  152.49  120.11    0.00    0.02 -99.000 -99.000 -99.000   0.099   0.069   0.059   0.042   0.023   0.029   0.030   0.058   0.046   0.346   2.433
   15 174    98  17.60  16.60   9.70 -99.000   3.276   2.887   0.393   3.274   2.887   0.387   0.000   0.001  353.27  275.89  155.38  120.50    0.00    0.02 -99.000 -99.000 -99.000   0.091   0.059   0.049   0.035   0.019   0.024   0.024   0.048   0.038   0.289   2.448
   15 175    99  23.00  19.80   8.00 -99.000   4.405   3.874   0.536   4.402   3.874   0.527   0.000   0.001  357.68  280.30  159.25  121.02    0.00    0.02 -99.000 -99.000 -99.000   0.109   0.080   0.070   0.050   0.028   0.034   0.035   0.068   0.054   0.387   2.483
   15 176   100  25.80  21.30   6.40 -99.000   4.966   4.360   0.612   4.962   4.360   0.601   0.000   0.001  362.64  285.26  163.61  121.62    0.00    0.02 -99.000 -99.000 -99.000   0.116   0.090   0.080   0.058   0.034   0.040   0.041   0.080   0.063   0.436   2.620
   15 177   101  26.70  24.50   8.50 -99.000   5.457   4.783   0.680   5.452   4.783   0.669   0.000   0.001  368.10  290.71  168.39  122.29    0.00    0.02 -99.000 -99.000 -99.000   0.544   0.077   0.025   0.010   0.004   0.003   0.002   0.003   0.001   0.478   2.656
   15 178   102  20.10  22.90  13.80 -99.000   4.207   3.679   0.532   4.203   3.679   0.523   0.000   0.001  372.31  294.91  172.07  122.82    0.00    0.02 -99.000 -99.000 -99.000   0.416   0.065   0.022   0.009   0.003   0.003   0.002   0.003   0.001   0.368   2.641
   15 179   103  20.80  22.70  13.00 -99.000   4.314   3.764   0.554   4.309   3.764   0.545   0.000   0.001  376.62  299.22  175.84  123.36    0.00    0.02 -99.000 -99.000 -99.000   0.424   0.072   0.025   0.010   0.004   0.003   0.002   0.003   0.002   0.376   2.630
   15 180   104  23.70  25.20  12.50 -99.000   5.047   4.393   0.659   5.022   4.393   0.629   0.000   0.001  381.67  304.24  180.23  123.99    0.00    0.02 -99.000 -99.000 -99.000   0.466   0.096   0.034   0.014   0.005   0.004   0.003   0.004   0.002   0.439   2.001
   15 181   105  27.30  29.00  12.20 -99.000   6.069   5.269   0.806   5.831   5.269   0.561   0.000   0.001  387.74  310.07  185.50  124.55    0.00    0.02 -99.000 -99.000 -99.000   0.409   0.088   0.032   0.013   0.005   0.004   0.003   0.004   0.002   0.527   1.930
   15 182   106  25.80  28.60  13.50 -99.000   5.767   4.993   0.779   5.473   4.966   0.506   0.000   0.001  393.50  315.55  190.46  125.06    0.00    0.03 -99.000 -99.000 -99.000   0.366   0.078   0.030   0.013   0.005   0.004   0.003   0.004   0.002   0.497   1.840
   15 183   107  25.60  29.70  14.80 -99.000   5.854   5.053   0.806   5.516   5.053   0.462   0.000   0.001  399.36  321.06  195.52  125.52    0.00    0.03 -99.000 -99.000 -99.000   0.334   0.069   0.028   0.013   0.005   0.004   0.003   0.004   0.002   0.505   1.402
   15 184   108  28.00  31.90  14.10 -99.000   6.530   5.619   0.917   6.046   5.619   0.426   0.000   0.001  405.89  327.11  201.14  125.95    0.00    0.03 -99.000 -99.000 -99.000   0.304   0.066   0.026   0.012   0.005   0.004   0.003   0.004   0.002   0.562   1.248
   15 185   109  27.10  32.90  16.20 -99.000   6.491   5.567   0.930   5.960   5.567   0.393   0.000   0.001  412.38  333.07  206.70  126.34    0.00    0.03 -99.000 -99.000 -99.000   0.276   0.063   0.023   0.012   0.005   0.004   0.003   0.004   0.002   0.557   0.778
   15 186   110  26.30  33.40  17.60 -99.000   6.399   5.468   0.937   5.831   5.468   0.363   0.000   0.001  418.78  338.90  212.17  126.70    0.00    0.03 -99.000 -99.000 -99.000   0.252   0.061   0.022   0.011   0.005   0.004   0.003   0.004   0.002   0.547   0.655
   15 187   111  22.10  28.80  17.60 -99.000   5.114   4.353   0.766   3.792   3.419   0.372   0.000   0.001  423.89  342.69  215.59  127.07    0.00    0.03 -99.000 -99.000 -99.000   0.265   0.059   0.021   0.009   0.005   0.004   0.003   0.004   0.002   0.342   0.342
   15 188   112  27.50  33.80  16.40 -99.000   6.668   5.669   1.004   3.324   2.741   0.582   0.000   0.001  430.56  346.02  218.33  127.66    0.00    0.03 -99.000 -99.000 -99.000   0.478   0.057   0.021   0.009   0.005   0.004   0.003   0.004   0.002   0.274   0.274
   15 189   113  17.60  21.00  13.80 -99.000   3.613   3.048   0.569   3.608   3.048   0.559   0.000   0.001  434.17  349.63  221.38  128.22    0.00    0.03 -99.000 -99.000 -99.000   0.498   0.035   0.012   0.005   0.003   0.002   0.002   0.002   0.001   0.305   0.949
   15 190   114  21.10  19.10   8.70 -99.000   4.046   3.410   0.640   4.041   3.410   0.630   0.000   0.001  438.22  353.67  224.79  128.84    0.00    0.03 -99.000 -99.000 -99.000   0.558   0.042   0.013   0.006   0.003   0.002   0.002   0.003   0.001   0.341   0.994
   15 191   115  25.40  22.40   7.30 -99.000   5.020   4.228   0.797   4.186   3.473   0.713   0.000   0.001  443.24  357.85  228.26  129.56    0.00    0.03 -99.000 -99.000 -99.000   0.604   0.063   0.020   0.009   0.004   0.004   0.003   0.004   0.002   0.347   0.975
   15 192   116  29.20  28.30   8.30 -99.000   6.261   5.269   0.999   2.846   2.395   0.450   0.000   0.001  449.50  360.70  230.66  130.01    0.00    0.03 -99.000 -99.000 -99.000   0.343   0.061   0.020   0.009   0.004   0.004   0.003   0.004   0.002   0.240   0.240
   15 193   117  24.70  27.70  13.30 -99.000   5.477   4.571   0.911   2.531   2.109   0.421   0.000   0.001  454.98  363.23  232.77  130.43    0.00    0.03 -99.000 -99.000 -99.000   0.317   0.059   0.020   0.009   0.004   0.003   0.003   0.004   0.002   0.211   0.211
   15 194   118  14.80  21.00  15.80 -99.000   3.089   2.557   0.535   2.365   1.930   0.435   0.000   0.001  458.07  365.59  234.70  130.86    0.00    0.03 -99.000 -99.000 -99.000   0.333   0.057   0.019   0.008   0.004   0.003   0.003   0.004   0.002   0.193   0.193
   15 195   119  20.90  25.80  15.40 -99.000   4.613   3.814   0.804   2.249   1.801   0.448   0.000   0.001  462.68  367.84  236.50  131.31    0.00    0.03 -99.000 -99.000 -99.000   0.348   0.055   0.019   0.008   0.004   0.003   0.003   0.004   0.002   0.180   0.187
   15 196   120  21.80  27.40  16.00 -99.000   4.929   4.039   0.894   2.118   1.702   0.415   0.000   0.001  467.61  369.96  238.20  131.73    0.00    0.03 -99.000 -99.000 -99.000   0.317   0.054   0.019   0.008   0.004   0.003   0.003   0.004   0.002   0.170   0.170
   15 197   121  26.90  31.10  13.60 -99.000   6.235   5.063   1.177   2.009   1.623   0.385   0.000   0.001  473.84  371.97  239.82  132.11    0.00    0.04 -99.000 -99.000 -99.000   0.289   0.053   0.019   0.008   0.004   0.003   0.003   0.004   0.002   0.162   0.162
   15 198   122  27.70  33.90  15.30 -99.000   6.712   5.399   1.318   1.917   1.558   0.358   0.000   0.001  480.56  373.89  241.38  132.47    0.00    0.04 -99.000 -99.000 -99.000   0.263   0.052   0.018   0.008   0.004   0.003   0.002   0.004   0.002   0.156   0.156
   15 199   123  24.20  29.10  14.80 -99.000   5.548   4.382   1.171   1.646   1.295   0.351   0.000   0.001  486.10  375.53  242.68  132.82    0.00    0.04 -99.000 -99.000 -99.000   0.257   0.051   0.018   0.008   0.004   0.003   0.002   0.004   0.002   0.130   0.130
   15 200   124  22.80  28.80  16.00 -99.000   5.268   4.083   1.190   1.470   1.103   0.367   0.000   0.001  491.37  377.00  243.78  133.19    0.00    0.04 -99.000 -99.000 -99.000   0.274   0.051   0.018   0.008   0.004   0.003   0.002   0.004   0.002   0.110   0.110
   15 201   125  20.50  28.50  18.10 -99.000   4.808   3.652   1.160   1.338   0.974   0.364   0.000   0.001  496.18  378.34  244.75  133.55    0.00    0.04 -99.000 -99.000 -99.000   0.272   0.050   0.018   0.008   0.004   0.003   0.002   0.004   0.002   0.097   0.097
   15 202   126  24.90  32.00  16.50 -99.000   6.011   4.471   1.545   1.218   0.879   0.338   0.000   0.001  502.19  379.56  245.63  133.89    0.00    0.04 -99.000 -99.000 -99.000   0.247   0.049   0.018   0.008   0.004   0.003   0.002   0.004   0.002   0.088   0.088
   15 203   127  27.30  34.30  15.60 -99.000   6.726   4.894   1.837   1.120   0.804   0.315   0.000   0.001  508.92  380.68  246.44  134.20    0.00    0.04 -99.000 -99.000 -99.000   0.225   0.049   0.018   0.008   0.004   0.003   0.002   0.004   0.002   0.080   0.080
   15 204   128  15.60  24.50  18.30 -99.000   3.520   2.503   1.019   1.101   0.744   0.357   0.000   0.001  512.44  381.78  247.18  134.56    0.00    0.04 -99.000 -99.000 -99.000   0.268   0.048   0.018   0.008   0.004   0.003   0.002   0.004   0.002   0.074   0.074
   15 205   129  23.70  29.10  14.80 -99.000   5.511   3.828   1.687   1.045   0.649   0.395   0.000   0.001  517.95  382.82  247.83  134.95    0.00    0.04 -99.000 -99.000 -99.000   0.306   0.047   0.018   0.008   0.004   0.003   0.002   0.004   0.002   0.065   0.069
   15 206   130  22.00  25.00  12.60 -99.000   4.799   3.254   1.549   0.986   0.610   0.376   0.000   0.001  522.75  383.81  248.44  135.33    0.00    0.04 -99.000 -99.000 -99.000   0.288   0.047   0.017   0.008   0.004   0.003   0.002   0.004   0.002   0.061   0.061
   15 207   131  24.10  23.10   8.00 -99.000   4.949   3.273   1.680   0.975   0.576   0.399   0.000   0.001  527.70  384.79  249.02  135.73    0.00    0.04 -99.000 -99.000 -99.000   0.311   0.047   0.017   0.008   0.004   0.003   0.002   0.004   0.002   0.058   0.058
   15 208   132  20.40  23.80  12.90 -99.000   4.420   2.850   1.574   1.114   0.546   0.568   0.000   0.001  532.12  385.90  249.56  136.30    0.00    0.04 -99.000 -99.000 -99.000   0.480   0.047   0.017   0.008   0.004   0.003   0.002   0.004   0.002   0.055   0.055
   15 209   133  20.10  22.80  12.10 -99.000   4.303   2.702   1.604   3.441   2.702   0.739   0.000   0.001  536.42  389.34  252.26  137.04    0.00    0.04 -99.000 -99.000 -99.000   0.652   0.046   0.017   0.008   0.004   0.003   0.002   0.004   0.002   0.270   0.764
   15 210   134  20.30  20.50   9.50 -99.000   4.118   2.548   1.574   1.422   0.864   0.558   0.000   0.001  540.54  390.76  253.13  137.59    0.00    0.04 -99.000 -99.000 -99.000   0.471   0.046   0.017   0.008   0.004   0.003   0.002   0.004   0.002   0.086   0.086
   15 211   135  23.10  21.80   7.50 -99.000   4.697   2.828   1.873   1.505   0.976   0.528   0.000   0.001  545.23  392.27  254.10  138.12    0.00    0.05 -99.000 -99.000 -99.000   0.442   0.046   0.017   0.008   0.004   0.003   0.002   0.004   0.002   0.098   0.098
   15 212   136  22.90  23.50   9.30 -99.000   4.849   2.780   2.073   0.912   0.467   0.444   0.000   0.001  550.08  393.18  254.57  138.56    0.00    0.05 -99.000 -99.000 -99.000   0.359   0.046   0.017   0.007   0.004   0.003   0.002   0.004   0.002   0.047   0.055
   15 213   137  16.50  20.70  13.20 -99.000   3.498   1.903   1.597   0.861   0.449   0.412   0.000   0.001  553.58  394.04  255.02  138.98    0.00    0.05 -99.000 -99.000 -99.000   0.327   0.045   0.017   0.007   0.004   0.003   0.002   0.004   0.002   0.045   0.045
   15 214   138  21.00  25.10  12.90 -99.000   4.711   2.413   2.301   0.819   0.432   0.386   0.000   0.001  558.29  394.86  255.45  139.36    0.00    0.05 -99.000 -99.000 -99.000   0.302   0.045   0.017   0.007   0.004   0.003   0.002   0.004   0.002   0.043   0.043
   15 215   139  24.70  28.30  11.20 -99.000   5.705   2.732   2.976   0.781   0.417   0.363   0.000   0.001  564.00  395.64  255.87  139.73    0.00    0.05 -99.000 -99.000 -99.000   0.279   0.045   0.017   0.007   0.004   0.003   0.002   0.004   0.002   0.042   0.042
   15 216   140  26.30  31.60  12.10 -99.000   6.386   2.825   3.565   0.741   0.403   0.338   0.000   0.001  570.38  396.38  256.27  140.06    0.00    0.05 -99.000 -99.000 -99.000   0.254   0.045   0.017   0.007   0.004   0.003   0.002   0.004   0.002   0.040   0.040
   15 217   141  23.90  29.90  13.60 -99.000   5.786   2.337   3.452   0.705   0.389   0.315   0.000   0.001  576.17  397.09  256.66  140.38    0.00    0.05 -99.000 -99.000 -99.000   0.231   0.044   0.016   0.007   0.004   0.003   0.002   0.004   0.002   0.039   0.039
   15 218   142  26.60  33.60  13.20 -99.000   6.729   2.433   4.299   0.671   0.377   0.293   0.000   0.001  582.90  397.76  257.04  140.67    0.00    0.05 -99.000 -99.000 -99.000   0.210   0.044   0.016   0.007   0.004   0.003   0.002   0.004   0.002   0.038   0.038
   15 219   143  26.70  35.20  14.30 -99.000   7.030   2.237   4.795   0.641   0.366   0.274   0.000   0.001  589.93  398.40  257.40  140.95    0.00    0.05 -99.000 -99.000 -99.000   0.192   0.044   0.016   0.007   0.004   0.003   0.002   0.004   0.002   0.037   0.037
   15 220   144  25.70  34.90  15.40 -99.000   6.778   1.838   4.941   0.697   0.355   0.342   0.000   0.001  596.71  399.10  257.76  141.29    0.00    0.05 -99.000 -99.000 -99.000   0.259   0.044   0.016   0.007   0.004   0.003   0.002   0.004   0.002   0.035   0.035
[...]
   15 148    72  26.60  20.30   3.50 -99.000   5.323   2.201   3.125   3.198   2.201   0.997   0.000   0.000  247.87  172.38   48.53  123.84    0.00    0.00 -99.000 -99.000 -99.000   0.812   0.111   0.036   0.014   0.007   0.006   0.003   0.004   0.002   0.220   0.679
   15 149    73  25.70  23.40   7.80 -99.000   5.547   2.360   3.190   3.245   2.360   0.884   0.000   0.000  253.42  175.62   50.89  124.72    0.00    0.00 -99.000 -99.000 -99.000   0.705   0.107   0.036   0.014   0.007   0.006   0.003   0.004   0.002   0.236   0.704
   15 150    74  17.10  18.40  11.50 -99.000   3.554   1.545   2.012   2.328   1.545   0.784   0.000   0.000  256.97  177.95   52.44  125.51    0.00    0.00 -99.000 -99.000 -99.000   0.609   0.103   0.035   0.014   0.007   0.006   0.003   0.004   0.002   0.154   0.727
   15 151    75  22.30  21.20   9.60 -99.000   4.715   2.084   2.634   2.790   2.084   0.706   0.000   0.000  261.69  180.74   54.52  126.21    0.00    0.00 -99.000 -99.000 -99.000   0.535   0.100   0.034   0.014   0.007   0.006   0.003   0.004   0.002   0.208   0.661
   15 152    76  24.70  26.10  11.90 -99.000   5.646   2.541   3.108   3.190   2.541   0.649   0.000   0.000  267.33  183.93   57.06  126.86    0.00    0.00 -99.000 -99.000 -99.000   0.483   0.095   0.034   0.014   0.007   0.006   0.003   0.004   0.002   0.254   0.647
   15 153    77  22.70  25.70  13.80 -99.000   5.221   2.455   2.769   3.059   2.455   0.603   0.000   0.000  272.55  186.99   59.52  127.47    0.00    0.00 -99.000 -99.000 -99.000   0.444   0.090   0.033   0.014   0.007   0.006   0.003   0.004   0.002   0.246   0.661
   15 154    78  26.20  28.40  12.50 -99.000   6.133   2.998   3.138   3.554   2.998   0.555   0.000   0.001  278.69  190.54   62.52  128.02    0.00    0.01 -99.000 -99.000 -99.000   0.402   0.085   0.032   0.014   0.007   0.006   0.003   0.004   0.002   0.300   0.675
   15 155    79  24.80  26.70  12.60 -99.000   5.673   2.868   2.808   3.373   2.862   0.510   0.000   0.001  284.36  193.92   65.38  128.53    0.00    0.01 -99.000 -99.000 -99.000   0.365   0.079   0.031   0.013   0.007   0.006   0.003   0.004   0.002   0.286   0.689
   15 156    80  23.50  28.10  15.40 -99.000   5.567   2.897   2.673   3.369   2.897   0.471   0.000   0.001  289.93  197.28   68.28  129.00    0.00    0.01 -99.000 -99.000 -99.000   0.332   0.074   0.029   0.013   0.007   0.006   0.003   0.004   0.002   0.290   0.581
   15 157    81  27.40  30.30  13.20 -99.000   6.527   3.481   3.050   4.079   3.481   0.597   0.000   0.001  296.45  201.36   71.76  129.60    0.00    0.01 -99.000 -99.000 -99.000   0.463   0.071   0.028   0.013   0.007   0.005   0.003   0.004   0.002   0.348   0.563
   15 158    82  21.90  26.90  16.00 -99.000   5.144   2.809   2.338   3.522   2.809   0.712   0.000   0.001  301.60  204.89   74.57  130.31    0.00    0.01 -99.000 -99.000 -99.000   0.583   0.068   0.026   0.012   0.007   0.005   0.003   0.004   0.002   0.281   0.700
   15 159    83  18.70  20.10  12.20 -99.000   3.893   2.212   1.684   3.249   2.212   1.036   0.000   0.001  305.49  208.13   76.78  131.35    0.00    0.01 -99.000 -99.000 -99.000   0.888   0.089   0.025   0.012   0.007   0.005   0.003   0.004   0.002   0.221   0.485
   15 160    84   9.90  13.40  11.20 -99.000   1.892   1.057   0.837   1.875   1.057   0.817   0.000   0.001  307.38  210.01   77.83  132.16    0.00    0.01 -99.000 -99.000 -99.000   0.192   0.117   0.071   0.065   0.055   0.066   0.057   0.109   0.086   0.106   0.777
   15 161    85  17.60  18.20  11.20 -99.000   3.594   1.974   1.623   3.560   1.974   1.585   0.000   0.001  310.98  213.57   79.81  133.75    0.00    0.01 -99.000 -99.000 -99.000   0.340   0.241   0.139   0.128   0.109   0.130   0.112   0.215   0.170   0.197   0.774
   15 162    86  19.10  22.40  14.20 -99.000   4.221   2.277   1.947   4.180   2.277   1.902   0.000   0.001  315.20  217.75   82.09  135.65    0.00    0.01 -99.000 -99.000 -99.000   0.387   0.290   0.169   0.155   0.133   0.158   0.138   0.264   0.209   0.228   0.781
   15 163    87  26.70  28.90  12.90 -99.000   6.315   3.342   2.977   4.361   3.342   1.018   0.000   0.001  321.51  222.11   85.43  136.67    0.00    0.01 -99.000 -99.000 -99.000   0.850   0.111   0.024   0.011   0.006   0.005   0.003   0.004   0.002   0.334   0.779
   15 164    88  21.90  25.50  14.70 -99.000   5.035   2.647   2.391   4.985   2.647   2.336   0.000   0.001  326.55  227.09   88.07  139.00    0.00    0.02 -99.000 -99.000 -99.000   0.505   0.348   0.201   0.183   0.158   0.192   0.169   0.324   0.257   0.265   0.791
   15 165    89  20.70  24.90  15.30 -99.000   4.795   2.505   2.293   4.747   2.505   2.241   0.000   0.001  331.34  231.84   90.58  141.25    0.00    0.02 -99.000 -99.000 -99.000   0.549   0.371   0.214   0.155   0.135   0.166   0.146   0.281   0.223   0.250   0.797
   15 166    90  11.60  16.60  13.60 -99.000   2.388   1.239   1.150   2.364   1.239   1.123   0.000   0.001  333.73  234.21   91.82  142.37    0.00    0.02 -99.000 -99.000 -99.000   0.262   0.199   0.140   0.080   0.062   0.077   0.068   0.131   0.104   0.124   1.029
   15 167    91  18.40  19.00  11.40 -99.000   3.841   1.984   1.860   3.802   1.984   1.817   0.000   0.001  337.57  238.01   93.80  144.19    0.00    0.02 -99.000 -99.000 -99.000   0.379   0.292   0.246   0.156   0.113   0.127   0.113   0.218   0.173   0.198   1.040
   15 168    92  20.50  19.50  10.10 -99.000   4.239   2.179   2.064   4.196   2.179   2.016   0.000   0.001  341.81  242.20   95.98  146.20    0.00    0.02 -99.000 -99.000 -99.000   0.388   0.307   0.267   0.187   0.144   0.146   0.129   0.250   0.198   0.218   1.058
   15 169    93  18.80  17.20   9.30 -99.000   3.732   1.908   1.826   3.694   1.908   1.784   0.000   0.001  345.54  245.90   97.89  147.98    0.00    0.02 -99.000 -99.000 -99.000   0.377   0.273   0.229   0.161   0.127   0.125   0.110   0.213   0.169   0.191   1.079
   15 170    94  14.40  15.50  10.90 -99.000   2.855   1.454   1.404   2.826   1.454   1.371   0.000   0.001  348.40  248.72   99.34  149.36    0.00    0.02 -99.000 -99.000 -99.000   0.285   0.206   0.174   0.126   0.098   0.101   0.085   0.164   0.131   0.145   1.099
   15 171    95  16.00  15.10   9.40 -99.000   3.097   1.570   1.529   3.065   1.570   1.494   0.000   0.001  351.50  251.79  100.91  150.85    0.00    0.03 -99.000 -99.000 -99.000   0.297   0.221   0.191   0.139   0.109   0.117   0.093   0.182   0.145   0.157   1.113
   15 172    96  19.10  17.60   9.50 -99.000   3.829   1.933   1.899   3.789   1.933   1.855   0.000   0.001  355.32  255.58  102.85  152.70    0.00    0.03 -99.000 -99.000 -99.000   0.359   0.272   0.239   0.174   0.136   0.147   0.117   0.229   0.182   0.193   1.130
   15 173    97  19.60  20.50  11.90 -99.000   4.171   2.095   2.078   4.127   2.095   2.031   0.000   0.001  359.50  259.70  104.94  154.74    0.00    0.03 -99.000 -99.000 -99.000   0.434   0.299   0.255   0.185   0.144   0.155   0.124   0.242   0.193   0.209   1.149
   15 174    98  17.60  16.60   9.70 -99.000   3.510   1.753   1.759   3.473   1.753   1.718   0.000   0.001  363.01  263.18  106.69  156.45    0.00    0.03 -99.000 -99.000 -99.000   0.395   0.256   0.212   0.153   0.119   0.126   0.101   0.198   0.158   0.175   1.169
   15 175    99  23.00  19.80   8.00 -99.000   4.715   2.344   2.374   4.665   2.344   2.320   0.000   0.001  367.72  267.84  109.04  158.77    0.00    0.03 -99.000 -99.000 -99.000   0.474   0.341   0.296   0.215   0.168   0.180   0.144   0.279   0.223   0.234   1.187
   15 176   100  25.80  21.30   6.40 -99.000   5.298   2.624   2.678   5.242   2.624   2.617   0.000   0.001  373.02  273.09  111.66  161.39    0.00    0.03 -99.000 -99.000 -99.000   0.498   0.381   0.336   0.246   0.194   0.211   0.169   0.324   0.259   0.262   1.209
   15 177   101  26.70  24.50   8.50 -99.000   5.812   2.866   2.950   3.919   2.866   1.052   0.000   0.001  378.83  277.00  114.53  162.44    0.00    0.03 -99.000 -99.000 -99.000   0.863   0.115   0.037   0.014   0.007   0.006   0.003   0.004   0.002   0.287   1.232
   15 178   102  20.10  22.90  13.80 -99.000   4.473   2.195   2.281   3.170   2.195   0.973   0.000   0.001  383.30  280.17  116.72  163.42    0.00    0.04 -99.000 -99.000 -99.000   0.790   0.111   0.036   0.014   0.007   0.006   0.003   0.004   0.002   0.219   1.252
   15 179   103  20.80  22.70  13.00 -99.000   4.587   2.238   2.351   3.151   2.238   0.911   0.000   0.001  387.89  283.33  118.96  164.33    0.00    0.04 -99.000 -99.000 -99.000   0.732   0.108   0.036   0.014   0.007   0.006   0.003   0.004   0.002   0.224   1.265
   15 180   104  23.70  25.20  12.50 -99.000   5.359   2.601   2.761   3.416   2.601   0.814   0.000   0.001  393.25  286.74  121.56  165.14    0.00    0.04 -99.000 -99.000 -99.000   0.639   0.104   0.035   0.014   0.007   0.005   0.003   0.004   0.002   0.260   1.276
   15 181   105  27.30  29.00  12.20 -99.000   6.433   3.104   3.332   3.825   3.104   0.719   0.000   0.001  399.68  290.57  124.67  165.86    0.00    0.04 -99.000 -99.000 -99.000   0.549   0.100   0.034   0.014   0.007   0.005   0.003   0.004   0.002   0.310   1.198
   15 182   106  25.80  28.60  13.50 -99.000   6.106   2.927   3.181   3.572   2.927   0.643   0.000   0.001  405.79  294.14  127.59  166.50    0.00    0.04 -99.000 -99.000 -99.000   0.479   0.095   0.033   0.014   0.007   0.005   0.003   0.004   0.002   0.293   1.136
   15 183   107  25.60  29.70  14.80 -99.000   6.193   2.950   3.246   3.540   2.950   0.589   0.000   0.001  411.98  297.68  130.54  167.09    0.00    0.04 -99.000 -99.000 -99.000   0.432   0.091   0.032   0.013   0.007   0.005   0.003   0.004   0.002   0.295   1.126
   15 184   108  28.00  31.90  14.10 -99.000   6.903   3.265   3.642   3.809   3.265   0.543   0.000   0.001  418.88  301.49  133.81  167.64    0.00    0.04 -99.000 -99.000 -99.000   0.391   0.086   0.031   0.013   0.007   0.005   0.003   0.004   0.002   0.326   1.125
   15 185   109  27.10  32.90  16.20 -99.000   6.858   3.219   3.642   3.716   3.215   0.500   0.000   0.001  425.74  305.20  137.02  168.14    0.00    0.04 -99.000 -99.000 -99.000   0.355   0.080   0.030   0.013   0.007   0.005   0.003   0.004   0.002   0.321   1.127
   15 186   110  26.30  33.40  17.60 -99.000   6.757   3.147   3.614   3.609   3.147   0.462   0.000   0.001  432.50  308.81  140.17  168.60    0.00    0.05 -99.000 -99.000 -99.000   0.323   0.075   0.029   0.013   0.007   0.005   0.003   0.004   0.002   0.315   0.994
   15 187   111  22.10  28.80  17.60 -99.000   5.398   2.493   2.908   2.957   2.493   0.463   0.000   0.001  437.90  311.77  142.66  169.06    0.00    0.05 -99.000 -99.000 -99.000   0.330   0.072   0.028   0.012   0.007   0.005   0.003   0.004   0.002   0.249   0.935
   15 188   112  27.50  33.80  16.40 -99.000   7.043   3.244   3.802   3.913   3.244   0.667   0.000   0.001  444.94  315.68  145.91  169.73    0.00    0.05 -99.000 -99.000 -99.000   0.537   0.070   0.027   0.012   0.006   0.005   0.003   0.004   0.002   0.324   0.914
   15 189   113  17.60  21.00  13.80 -99.000   3.838   1.764   2.076   2.806   1.764   1.041   0.000   0.001  448.78  318.49  147.67  170.77    0.00    0.05 -99.000 -99.000 -99.000   0.908   0.074   0.026   0.012   0.006   0.005   0.003   0.004   0.002   0.176   0.988
   15 190   114  21.10  19.10   8.70 -99.000   4.326   1.985   2.344   4.276   1.985   2.290   0.000   0.001  453.10  322.77  149.66  173.06    0.00    0.05 -99.000 -99.000 -99.000   0.522   0.254   0.223   0.198   0.163   0.191   0.159   0.323   0.258   0.198   1.149
   15 191   115  25.40  22.40   7.30 -99.000   5.363   2.457   2.909   3.503   2.457   1.045   0.000   0.001  458.47  326.27  152.11  174.10    0.00    0.05 -99.000 -99.000 -99.000   0.910   0.078   0.025   0.012   0.006   0.005   0.003   0.004   0.002   0.246   1.093
   15 192   116  29.20  28.30   8.30 -99.000   6.682   3.056   3.629   3.984   3.056   0.927   0.000   0.001  465.15  330.25  155.17  175.03    0.00    0.05 -99.000 -99.000 -99.000   0.797   0.075   0.024   0.011   0.006   0.005   0.003   0.004   0.002   0.306   0.964
   15 193   117  24.70  27.70  13.30 -99.000   5.824   2.658   3.169   3.465   2.658   0.806   0.000   0.001  470.97  333.72  157.83  175.84    0.00    0.06 -99.000 -99.000 -99.000   0.679   0.072   0.024   0.011   0.006   0.005   0.003   0.004   0.002   0.266   0.893
   15 194   118  14.80  21.00  15.80 -99.000   3.274   1.491   1.785   2.232   1.491   0.739   0.000   0.001  474.25  335.95  159.32  176.57    0.00    0.06 -99.000 -99.000 -99.000   0.615   0.070   0.023   0.011   0.006   0.005   0.003   0.004   0.002   0.149   0.820
   15 195   119  20.90  25.80  15.40 -99.000   4.889   2.222   2.669   2.928   2.222   0.704   0.000   0.001  479.14  338.88  161.54  177.28    0.00    0.06 -99.000 -99.000 -99.000   0.582   0.069   0.023   0.011   0.006   0.005   0.003   0.004   0.002   0.222   0.841
   15 196   120  21.80  27.40  16.00 -99.000   5.214   2.330   2.886   2.940   2.330   0.608   0.000   0.001  484.35  341.82  163.87  177.89    0.00    0.06 -99.000 -99.000 -99.000   0.488   0.067   0.023   0.011   0.006   0.005   0.003   0.004   0.002   0.233   0.666
   15 197   121  26.90  31.10  13.60 -99.000   6.588   2.894   3.698   3.450   2.894   0.555   0.000   0.001  490.94  345.27  166.76  178.44    0.00    0.06 -99.000 -99.000 -99.000   0.436   0.066   0.023   0.010   0.006   0.005   0.003   0.004   0.002   0.289   0.579
   15 198   122  27.70  33.90  15.30 -99.000   7.086   3.058   4.031   3.568   3.058   0.509   0.000   0.001  498.02  348.84  169.82  178.95    0.00    0.06 -99.000 -99.000 -99.000   0.393   0.065   0.022   0.010   0.005   0.005   0.003   0.004   0.002   0.306   0.520
   15 199   123  24.20  29.10  14.80 -99.000   5.848   2.478   3.372   2.967   2.478   0.488   0.000   0.001  503.87  351.80  172.30  179.44    0.00    0.06 -99.000 -99.000 -99.000   0.374   0.063   0.022   0.010   0.005   0.005   0.003   0.004   0.002   0.248   0.439
   15 200   124  22.80  28.80  16.00 -99.000   5.547   2.309   3.240   2.802   2.309   0.492   0.000   0.001  509.42  354.61  174.61  179.93    0.00    0.07 -99.000 -99.000 -99.000   0.379   0.062   0.022   0.010   0.005   0.005   0.003   0.004   0.002   0.231   0.385
   15 201   125  20.50  28.50  18.10 -99.000   5.057   2.067   2.992   2.534   2.055   0.477   0.000   0.001  514.48  357.14  176.66  180.41    0.00    0.07 -99.000 -99.000 -99.000   0.367   0.061   0.022   0.009   0.005   0.004   0.003   0.004   0.002   0.206   0.351
   15 202   126  24.90  32.00  16.50 -99.000   6.311   2.533   3.781   2.977   2.533   0.443   0.000   0.001  520.79  360.12  179.20  180.85    0.00    0.07 -99.000 -99.000 -99.000   0.334   0.060   0.021   0.009   0.005   0.004   0.003   0.004   0.002   0.253   0.327
   15 203   127  27.30  34.30  15.60 -99.000   7.050   2.776   4.276   3.189   2.776   0.412   0.000   0.001  527.84  363.31  181.97  181.26    0.00    0.07 -99.000 -99.000 -99.000   0.304   0.059   0.021   0.009   0.005   0.004   0.003   0.004   0.002   0.278   0.306
   15 204   128  15.60  24.50  18.30 -99.000   3.683   1.423   2.262   1.870   1.423   0.445   0.000   0.001  531.52  365.18  183.40  181.71    0.00    0.07 -99.000 -99.000 -99.000   0.339   0.058   0.021   0.009   0.005   0.004   0.003   0.004   0.002   0.142   0.289
   15 205   129  23.70  29.10  14.80 -99.000   5.766   2.187   3.582   2.647   2.169   0.476   0.000   0.001  537.29  367.82  185.57  182.18    0.00    0.07 -99.000 -99.000 -99.000   0.371   0.058   0.021   0.009   0.005   0.004   0.003   0.004   0.002   0.217   0.283
   15 206   130  22.00  25.00  12.60 -99.000   5.012   1.865   3.149   2.317   1.865   0.451   0.000   0.001  542.30  370.14  187.43  182.64    0.00    0.07 -99.000 -99.000 -99.000   0.347   0.057   0.021   0.009   0.005   0.004   0.003   0.004   0.002   0.186   0.238
   15 207   131  24.10  23.10   8.00 -99.000   5.160   1.884   3.278   2.353   1.884   0.468   0.000   0.001  547.46  372.49  189.32  183.10    0.00    0.07 -99.000 -99.000 -99.000   0.365   0.056   0.020   0.009   0.005   0.004   0.003   0.004   0.002   0.188   0.211
   15 208   132  20.40  23.80  12.90 -99.000   4.604   1.651   2.956   2.283   1.651   0.631   0.000   0.001  552.06  374.78  190.97  183.73    0.00    0.08 -99.000 -99.000 -99.000   0.529   0.056   0.020   0.009   0.005   0.004   0.003   0.004   0.002   0.165   0.192
   15 209   133  20.10  22.80  12.10 -99.000   4.490   1.579   2.913   2.376   1.579   0.796   0.000   0.001  556.55  377.15  192.55  184.53    0.00    0.08 -99.000 -99.000 -99.000   0.695   0.055   0.020   0.009   0.005   0.004   0.002   0.004   0.002   0.158   0.353
   15 210   134  20.30  20.50   9.50 -99.000   4.306   1.486   2.822   2.252   1.486   0.765   0.000   0.001  560.86  379.40  194.03  185.29    0.00    0.08 -99.000 -99.000 -99.000   0.665   0.054   0.020   0.009   0.005   0.004   0.002   0.004   0.002   0.149   0.341
   15 211   135  23.10  21.80   7.50 -99.000   4.897   1.658   3.241   2.340   1.658   0.680   0.000   0.001  565.76  381.75  195.69  185.97    0.00    0.08 -99.000 -99.000 -99.000   0.581   0.054   0.020   0.009   0.005   0.004   0.002   0.004   0.002   0.166   0.324
   15 212   136  22.90  23.50   9.30 -99.000   5.034   1.627   3.409   2.051   1.501   0.548   0.000   0.001  570.79  383.80  197.19  186.52    0.00    0.08 -99.000 -99.000 -99.000   0.450   0.054   0.020   0.009   0.005   0.004   0.002   0.004   0.002   0.150   0.150
   15 213   137  16.50  20.70  13.20 -99.000   3.620   1.115   2.506   1.613   1.115   0.497   0.000   0.001  574.41  385.41  198.31  187.02    0.00    0.08 -99.000 -99.000 -99.000   0.399   0.053   0.020   0.009   0.004   0.004   0.002   0.004   0.002   0.111   0.124
   15 214   138  21.00  25.10  12.90 -99.000   4.861   1.417   3.446   1.542   1.079   0.461   0.000   0.001  579.27  386.95  199.38  187.48    0.00    0.08 -99.000 -99.000 -99.000   0.365   0.052   0.019   0.008   0.004   0.004   0.002   0.004   0.002   0.108   0.110
   15 215   139  24.70  28.30  11.20 -99.000   5.871   1.612   4.261   1.407   0.973   0.432   0.000   0.001  585.14  388.36  200.36  187.91    0.00    0.09 -99.000 -99.000 -99.000   0.336   0.052   0.019   0.008   0.004   0.004   0.002   0.004   0.002   0.097   0.097
   15 216   140  26.30  31.60  12.10 -99.000   6.552   1.678   4.876   1.291   0.888   0.401   0.000   0.001  591.69  389.65  201.25  188.32    0.00    0.09 -99.000 -99.000 -99.000   0.306   0.051   0.019   0.008   0.004   0.004   0.002   0.004   0.002   0.089   0.089
   15 217   141  23.90  29.90  13.60 -99.000   5.921   1.377   4.546   1.193   0.819   0.373   0.000   0.001  597.62  390.84  202.06  188.69    0.00    0.09 -99.000 -99.000 -99.000   0.279   0.051   0.019   0.008   0.004   0.004   0.002   0.004   0.002   0.082   0.082
   15 218   142  26.60  33.60  13.20 -99.000   6.867   1.424   5.444   1.109   0.760   0.348   0.000   0.001  604.48  391.95  202.82  189.04    0.00    0.09 -99.000 -99.000 -99.000   0.254   0.050   0.019   0.008   0.004   0.004   0.002   0.004   0.002   0.076   0.076
   15 219   143  26.70  35.20  14.30 -99.000   7.153   1.307   5.847   1.036   0.710   0.324   0.000   0.001  611.64  392.99  203.53  189.36    0.00    0.09 -99.000 -99.000 -99.000   0.231   0.050   0.019   0.008   0.004   0.003   0.002   0.004   0.002   0.071   0.071
   15 220   144  25.70  34.90  15.40 -99.000   6.874   1.078   5.796   1.056   0.667   0.387   0.000   0.001  618.51  394.04  204.20  189.75    0.00    0.09 -99.000 -99.000 -99.000   0.295   0.050   0.019   0.008   0.004   0.003   0.002   0.004   0.002   0.067   0.067
   15 221   145  24.00  33.30  16.10 -99.000   6.399   0.852   5.548   1.076   0.629   0.445   0.000   0.001  624.91  395.12  204.83  190.19    0.00    0.09 -99.000 -99.000 -99.000   0.353   0.049   0.019   0.008   0.004   0.003   0.002   0.004   0.002   0.063   0.064
