*MANAGEMENT OPERATIONS EVENT SUMMARY

*DSSAT Cropping System Model Ver. 4.8.5.000 -release  OCT 24, 2025 14:14:59
!---------------------------------------------------------------------------------------------
@RUN Date........  DOY    DAS    DAP  CR  Stage         Operation       Quantities
!---------------------------------------------------------------------------------------------
   1 MAR 18,   15  077      1      0  WH                Planting       
   1 MAR 18,   15  077      1      0  WH                Tillage            5.0 cm
   1 APR  8,   15  098     22     21  WH                Fertilizer         40. kg[N]/ha 
   1 JUN  1,   15  152     76     75  WH                Fertilizer         40. kg[N]/ha 
   1 JUL  2,   15  183    107    106  WH                Fertilizer         40. kg[N]/ha 
   1 AUG  9,   15  221    145    144  WH                End simulation 
                                             100.0 % yield harvested     6392. kg/ha
                                               0.0 % by-product harv        0. kg/ha
 

*DSSAT Cropping System Model Ver. 4.8.5.000 -release  OCT 24, 2025 14:14:59
!---------------------------------------------------------------------------------------------
@RUN Date........  DOY    DAS    DAP  CR  Stage         Operation       Quantities
!---------------------------------------------------------------------------------------------
   2 MAR 18,   15  077      1      0  WH                Planting       
   2 MAR 18,   15  077      1      0  WH                Tillage            5.0 cm
   2 APR  8,   15  098     22     21  WH                Fertilizer         40. kg[N]/ha 
   2 JUN  1,   15  152     76     75  WH                Fertilizer         40. kg[N]/ha 
   2 JUL  2,   15  183    107    106  WH                Fertilizer         40. kg[N]/ha 
   2 AUG  9,   15  221    145    144  WH                End simulation 
                                             100.0 % yield harvested     6571. kg/ha
                                               0.0 % by-product harv        0. kg/ha
 

*DSSAT Cropping System Model Ver. 4.8.5.000 -release  OCT 24, 2025 14:14:59
!---------------------------------------------------------------------------------------------
@RUN Date........  DOY    DAS    DAP  CR  Stage         Operation       Quantities
!---------------------------------------------------------------------------------------------
   3 MAR 18,   15  077      1      0  WH                Planting       
   3 MAR 18,   15  077      1      0  WH                Tillage            5.0 cm
   3 JUL  2,   15  183    107    106  WH                Fertilizer         40. kg[N]/ha 
   3 AUG  9,   15  221    145    144  WH                End simulation 
                                             100.0 % yield harvested     2414. kg/ha
                                               0.0 % by-product harv        0. kg/ha
 

*DSSAT Cropping System Model Ver. 4.8.5.000 -release  OCT 24, 2025 14:14:59
!---------------------------------------------------------------------------------------------
@RUN Date........  DOY    DAS    DAP  CR  Stage         Operation       Quantities
!---------------------------------------------------------------------------------------------
   4 MAR 18,   15  077      1      0  WH                Planting       
   4 MAR 18,   15  077      1      0  WH                Tillage            5.0 cm
   4 APR  8,   15  098     22     21  WH                Fertilizer         40. kg[N]/ha 
   4 JUN  1,   15  152     76     75  WH                Fertilizer         40. kg[N]/ha 
   4 JUL  2,   15  183    107    106  WH                Fertilizer         40. kg[N]/ha 
   4 AUG  9,   15  221    145    144  WH                End simulation 
                                             100.0 % yield harvested     6545. kg/ha
                                               0.0 % by-product harv        0. kg/ha
 

*DSSAT Cropping System Model Ver. 4.8.5.000 -release  OCT 24, 2025 14:14:59
!---------------------------------------------------------------------------------------------
@RUN Date........  DOY    DAS    DAP  CR  Stage         Operation       Quantities
!---------------------------------------------------------------------------------------------
   5 MAR 18,   15  077      1      0  WH                Planting       
   5 MAR 18,   15  077      1      0  WH                Tillage            5.0 cm
   5 APR  8,   15  098     22     21  WH                Fertilizer         60. kg[N]/ha 
   5 JUN  1,   15  152     76     75  WH                Fertilizer         60. kg[N]/ha 
   5 AUG  9,   15  221    145    144  WH                End simulation 
                                             100.0 % yield harvested     7010. kg/ha
                                               0.0 % by-product harv        0. kg/ha
 

*DSSAT Cropping System Model Ver. 4.8.5.000 -release  OCT 24, 2025 14:14:59
!---------------------------------------------------------------------------------------------
@RUN Date........  DOY    DAS    DAP  CR  Stage         Operation       Quantities
!---------------------------------------------------------------------------------------------
   6 MAR 18,   15  077      1      0  WH                Planting       
   6 MAR 18,   15  077      1      0  WH                Tillage            5.0 cm
   6 APR  8,   15  098     22     21  WH                Fertilizer         40. kg[N]/ha 
   6 JUN  1,   15  152     76     75  WH                Fertilizer         40. kg[N]/ha 
   6 JUL  2,   15  183    107    106  WH                Fertilizer         40. kg[N]/ha 
   6 AUG  9,   15  221    145    144  WH                End simulation 
                                             100.0 % yield harvested     6443. kg/ha
                                               0.0 % by-product harv        0. kg/ha
 

*DSSAT Cropping System Model Ver. 4.8.5.000 -release  OCT 24, 2025 14:15:00
!---------------------------------------------------------------------------------------------
@RUN Date........  DOY    DAS    DAP  CR  Stage         Operation       Quantities
!---------------------------------------------------------------------------------------------
   7 MAR 18,   15  077      1      0  WH                Planting       
   7 MAR 18,   15  077      1      0  WH                Tillage            5.0 cm
   7 APR  8,   15  098     22     21  WH                Fertilizer         60. kg[N]/ha 
   7 JUN  1,   15  152     76     75  WH                Fertilizer         40. kg[N]/ha 
   7 JUL  2,   15  183    107    106  WH                Fertilizer         20. kg[N]/ha 
   7 AUG  9,   15  221    145    144  WH                End simulation 
                                             100.0 % yield harvested     7045. kg/ha
                                               0.0 % by-product harv        0. kg/ha
 

*DSSAT Cropping System Model Ver. 4.8.5.000 -release  OCT 24, 2025 14:15:00
!---------------------------------------------------------------------------------------------
@RUN Date........  DOY    DAS    DAP  CR  Stage         Operation       Quantities
!---------------------------------------------------------------------------------------------
   8 MAR 18,   15  077      1      0  WH                Planting       
   8 MAR 18,   15  077      1      0  WH                Tillage            5.0 cm
   8 APR  8,   15  098     22     21  WH                Fertilizer         80. kg[N]/ha 
   8 JUN  1,   15  152     76     75  WH                Fertilizer         60. kg[N]/ha 
   8 JUL  2,   15  183    107    106  WH                Fertilizer         40. kg[N]/ha 
   8 AUG  9,   15  221    145    144  WH                End simulation 
                                             100.0 % yield harvested     7122. kg/ha
                                               0.0 % by-product harv        0. kg/ha
 

*DSSAT Cropping System Model Ver. 4.8.5.000 -release  OCT 24, 2025 14:15:00
!---------------------------------------------------------------------------------------------
@RUN Date........  DOY    DAS    DAP  CR  Stage         Operation       Quantities
!---------------------------------------------------------------------------------------------
   9 MAR 18,   15  077      1      0  WH                Planting       
   9 MAR 18,   15  077      1      0  WH                Tillage            5.0 cm
   9 APR  8,   15  098     22     21  WH                Fertilizer         80. kg[N]/ha 
   9 JUN  1,   15  152     76     75  WH                Fertilizer         60. kg[N]/ha 
   9 JUL  2,   15  183    107    106  WH                Fertilizer         40. kg[N]/ha 
   9 AUG  9,   15  221    145    144  WH                End simulation 
                                             100.0 % yield harvested     7241. kg/ha
                                               0.0 % by-product harv        0. kg/ha
 

*DSSAT Cropping System Model Ver. 4.8.5.000 -release  OCT 24, 2025 14:15:00
!---------------------------------------------------------------------------------------------
@RUN Date........  DOY    DAS    DAP  CR  Stage         Operation       Quantities
!---------------------------------------------------------------------------------------------
  10 MAR 18,   15  077      1      0  WH                Planting       
  10 MAR 18,   15  077      1      0  WH                Tillage            5.0 cm
  10 JUL  2,   15  183    107    106  WH                Fertilizer         60. kg[N]/ha 
  10 AUG  9,   15  221    145    144  WH                End simulation 
                                             100.0 % yield harvested     2414. kg/ha
                                               0.0 % by-product harv        0. kg/ha
 

*DSSAT Cropping System Model Ver. 4.8.5.000 -release  OCT 24, 2025 14:15:00
!---------------------------------------------------------------------------------------------
@RUN Date........  DOY    DAS    DAP  CR  Stage         Operation       Quantities
!---------------------------------------------------------------------------------------------
  11 MAR 18,   15  077      1      0  WH                Planting       
  11 MAR 18,   15  077      1      0  WH                Tillage            5.0 cm
  11 APR  8,   15  098     22     21  WH                Fertilizer         80. kg[N]/ha 
  11 JUN  1,   15  152     76     75  WH                Fertilizer         60. kg[N]/ha 
  11 JUL  2,   15  183    107    106  WH                Fertilizer         40. kg[N]/ha 
  11 AUG  9,   15  221    145    144  WH                End simulation 
                                             100.0 % yield harvested     7245. kg/ha
                                               0.0 % by-product harv        0. kg/ha
 

*DSSAT Cropping System Model Ver. 4.8.5.000 -release  OCT 24, 2025 14:15:00
!---------------------------------------------------------------------------------------------
@RUN Date........  DOY    DAS    DAP  CR  Stage         Operation       Quantities
!---------------------------------------------------------------------------------------------
  12 MAR 18,   15  077      1      0  WH                Planting       
  12 MAR 18,   15  077      1      0  WH                Tillage            5.0 cm
  12 APR  8,   15  098     22     21  WH                Fertilizer         80. kg[N]/ha 
  12 JUN  1,   15  152     76     75  WH                Fertilizer         60. kg[N]/ha 
  12 JUL  2,   15  183    107    106  WH                Fertilizer         40. kg[N]/ha 
  12 AUG  9,   15  221    145    144  WH                End simulation 
                                             100.0 % yield harvested     7200. kg/ha
                                               0.0 % by-product harv        0. kg/ha
 

*DSSAT Cropping System Model Ver. 4.8.5.000 -release  OCT 24, 2025 14:15:00
!---------------------------------------------------------------------------------------------
@RUN Date........  DOY    DAS    DAP  CR  Stage         Operation       Quantities
!---------------------------------------------------------------------------------------------
  13 MAR 18,   15  077      1      0  WH                Planting       
  13 MAR 18,   15  077      1      0  WH                Tillage            5.0 cm
  13 APR  8,   15  098     22     21  WH                Fertilizer         80. kg[N]/ha 
  13 JUN  1,   15  152     76     75  WH                Fertilizer         60. kg[N]/ha 
  13 JUL  2,   15  183    107    106  WH                Fertilizer         40. kg[N]/ha 
  13 AUG  9,   15  221    145    144  WH                End simulation 
                                             100.0 % yield harvested     7168. kg/ha
                                               0.0 % by-product harv        0. kg/ha
 

*DSSAT Cropping System Model Ver. 4.8.5.000 -release  OCT 24, 2025 14:15:00
!---------------------------------------------------------------------------------------------
@RUN Date........  DOY    DAS    DAP  CR  Stage         Operation       Quantities
!---------------------------------------------------------------------------------------------
  14 MAR 18,   15  077      1      0  WH                Planting       
  14 MAR 18,   15  077      1      0  WH                Tillage            5.0 cm
  14 APR  8,   15  098     22     21  WH                Fertilizer         60. kg[N]/ha 
  14 JUN  1,   15  152     76     75  WH                Fertilizer         80. kg[N]/ha 
  14 JUL  2,   15  183    107    106  WH                Fertilizer         40. kg[N]/ha 
  14 AUG  9,   15  221    145    144  WH                End simulation 
                                             100.0 % yield harvested     7057. kg/ha
                                               0.0 % by-product harv        0. kg/ha
 

*DSSAT Cropping System Model Ver. 4.8.5.000 -release  OCT 24, 2025 14:15:01
!---------------------------------------------------------------------------------------------
@RUN Date........  DOY    DAS    DAP  CR  Stage         Operation       Quantities
!---------------------------------------------------------------------------------------------
  15 MAR 18,   15  077      1      0  WH                Planting       
  15 MAR 18,   15  077      1      0  WH                Tillage            5.0 cm
  15 AUG  9,   15  221    145    144  WH                End simulation 
                                             100.0 % yield harvested     2414. kg/ha
                                               0.0 % by-product harv        0. kg/ha
 
