*N2O emissions output file

*DSSAT Cropping System Model Ver. 4.8.5.000 -release  OCT 24, 2025 14:14:59

*RUN   1        : 1                         CSCER048 TUDU1501    1
 MODEL          : CSCER048 - Wheat
 EXPERIMENT     : TUDU1501 WH
 DATA PATH      :
 TREATMENT  1   : 1                         CSCER048
  
!              |------------------------------ Cumulative -----------------------------|------------------------------ Daily ----------------------------------|
!               N2Oemit  N2emit  NOemit   Denit  Nitrif   N2O-denit+nit      N2      NO N2Oemit  N2emit  NOemit   Denit  Nitrif   N2O-denit+nit      N2      NO   Denitrification (g[N]/ha) by soil depth (cm):                           Nitrification (g[N]/ha) by soil depth (cm):                             N2O flux (g[N]/ha) by soil depth (cm):                                  N2 flux (g[N]/ha) by soil depth (cm):                                   NO flux (g[N]/ha) by soil depth (cm):
!                 kg/ha   kg/ha   kg/ha   kg/ha   kg/ha   kg/ha   kg/ha   kg/ha   kg/ha    g/ha    g/ha    g/ha    g/ha    g/ha    g/ha    g/ha    g/ha    g/ha     0-5    5-15   15-30   30-45   45-60   60-80  80-100 100-150 150-200     0-5    5-15   15-30   30-45   45-60   60-80  80-100 100-150 150-200     0-5    5-15   15-30   30-45   45-60   60-80  80-100 100-150 150-200     0-5    5-15   15-30   30-45   45-60   60-80  80-100 100-150 150-200     0-5    5-15   15-30   30-45   45-60   60-80  80-100 100-150 150-200
@YEAR DOY   DAS   N2OEC    N2EC    NOEC    NDNC    NITC   N2ODC   N2ONC   N2FLC   NOFLC  N2OGED   N2GED   NOGED    NDND   NITRD   N2ODD   N2OND   N2FLD   NOFLD   NDN1D   NDN2D   NDN3D   NDN4D   NDN5D   NDN6D   NDN7D   NDN8D   NDN9D   NIT1D   NIT2D   NIT3D   NIT4D   NIT5D   NIT6D   NIT7D   NIT8D   NIT9D   N2O1D   N2O2D   N2O3D   N2O4D   N2O5D   N2O6D   N2O7D   N2O8D   N2O9D   N2F1D   N2F2D   N2F3D   N2F4D   N2F5D   N2F6D   N2F7D   N2F8D   N2F9D   NOF1D   NOF2D   NOF3D   NOF4D   NOF5D   NOF6D   NOF7D   NOF8D   NOF9D   
   15 077     1    0.00    0.00    0.00    0.00     1.2   0.000   0.001   0.000   0.002     0.0     0.0     0.1     0.0    1177    0.00    1.18    0.00    1.94     0.0     0.0     0.0     0.0     0.0     0.0     0.0     0.0     0.0     74.    124.    146.    104.    103.    112.    111.    203.    200.     0.1     0.1     0.1     0.1     0.1     0.1     0.1     0.2     0.2     0.0     0.0     0.0     0.0     0.0     0.0     0.0     0.0     0.0     0.3     0.4     0.3     0.1     0.1     0.1     0.1     0.2     0.2
   15 078     2    0.00    0.00    0.00    0.00     2.2   0.000   0.002   0.000   0.003     0.0     0.0     0.1     0.0     985    0.00    0.99    0.00    1.54     0.0     0.0     0.0     0.0     0.0     0.0     0.0     0.0     0.0     60.    100.    121.     87.     86.     94.     94.    172.    172.     0.1     0.1     0.1     0.1     0.1     0.1     0.1     0.2     0.2     0.0     0.0     0.0     0.0     0.0     0.0     0.0     0.0     0.0     0.2     0.3     0.3     0.1     0.1     0.1     0.1     0.2     0.2
   15 079     3    0.00    0.00    0.00    0.00     3.0   0.000   0.003   0.000   0.005     0.0     0.0     0.1     0.0     816    0.00    0.82    0.00    1.26     0.0     0.0     0.0     0.0     0.0     0.0     0.0     0.0     0.0     48.     79.    100.     71.     71.     77.     78.    144.    147.     0.0     0.1     0.1     0.1     0.1     0.1     0.1     0.1     0.1     0.0     0.0     0.0     0.0     0.0     0.0     0.0     0.0     0.0     0.1     0.3     0.2     0.1     0.1     0.1     0.1     0.1     0.1
   15 080     4    0.00    0.00    0.00    0.00     3.7   0.000   0.004   0.000   0.009     0.1     0.0     0.3     0.0     673    0.00    0.67    0.00    3.87     0.0     0.0     0.0     0.0     0.0     0.0     0.0     0.0     0.0     39.     63.     81.     58.     59.     64.     65.    121.    124.     0.0     0.1     0.1     0.1     0.1     0.1     0.1     0.1     0.1     0.0     0.0     0.0     0.0     0.0     0.0     0.0     0.0     0.0     0.4     0.8     0.7     0.3     0.3     0.3     0.3     0.4     0.4
   15 081     5    0.00    0.00    0.00    0.00     4.2   0.000   0.004   0.000   0.011     0.1     0.0     0.3     0.0     560    0.00    0.56    0.00    2.60     0.0     0.0     0.0     0.0     0.0     0.0     0.0     0.0     0.0     32.     50.     67.     48.     49.     53.     54.    102.    106.     0.0     0.1     0.1     0.0     0.0     0.1     0.1     0.1     0.1     0.0     0.0     0.0     0.0     0.0     0.0     0.0     0.0     0.0     0.3     0.5     0.4     0.2     0.2     0.2     0.2     0.3     0.3
   15 082     6    0.00    0.00    0.00    0.00     4.7   0.000   0.005   0.000   0.013     0.1     0.0     0.4     0.0     465    0.00    0.46    0.00    1.74     0.0     0.0     0.0     0.0     0.0     0.0     0.0     0.0     0.0     26.     41.     55.     39.     40.     44.     45.     85.     90.     0.0     0.0     0.1     0.0     0.0     0.0     0.0     0.1     0.1     0.0     0.0     0.0     0.0     0.0     0.0     0.0     0.0     0.0     0.2     0.3     0.3     0.1     0.1     0.1     0.1     0.2     0.2
   15 083     7    0.00    0.00    0.00    0.00     5.1   0.000   0.005   0.000   0.014     0.1     0.0     0.4     0.0     397    0.00    0.40    0.00    1.21     0.0     0.0     0.0     0.0     0.0     0.0     0.0     0.0     0.0     22.     35.     47.     33.     34.     37.     39.     73.     78.     0.0     0.0     0.0     0.0     0.0     0.0     0.0     0.1     0.1     0.0     0.0     0.0     0.0     0.0     0.0     0.0     0.0     0.0     0.1     0.2     0.2     0.1     0.1     0.1     0.1     0.1     0.1
   15 084     8    0.00    0.00    0.00    0.00     5.4   0.000   0.005   0.000   0.015     0.1     0.0     0.4     0.0     365    0.00    0.36    0.00    0.91     0.0     0.0     0.0     0.0     0.0     0.0     0.0     0.0     0.0     20.     32.     43.     31.     32.     34.     35.     66.     71.     0.0     0.0     0.0     0.0     0.0     0.0     0.0     0.1     0.1     0.0     0.0     0.0     0.0     0.0     0.0     0.0     0.0     0.0     0.1     0.2     0.2     0.1     0.1     0.1     0.1     0.1     0.1
   15 085     9    0.00    0.00    0.00    0.00     5.8   0.000   0.006   0.000   0.016     0.1     0.0     0.5     0.0     351    0.00    0.35    0.00    0.72     0.0     0.0     0.0     0.0     0.0     0.0     0.0     0.0     0.0     20.     32.     43.     30.     31.     33.     34.     62.     66.     0.0     0.0     0.0     0.0     0.0     0.0     0.0     0.1     0.1     0.0     0.0     0.0     0.0     0.0     0.0     0.0     0.0     0.0     0.1     0.1     0.1     0.1     0.1     0.0     0.0     0.1     0.1
   15 086    10    0.00    0.00    0.00    0.00     6.1   0.000   0.006   0.000   0.016     0.1     0.0     0.5     0.0     326    0.00    0.33    0.00    0.54     0.0     0.0     0.0     0.0     0.0     0.0     0.0     0.0     0.0     19.     30.     40.     28.     29.     30.     31.     57.     61.     0.0     0.0     0.0     0.0     0.0     0.0     0.0     0.1     0.1     0.0     0.0     0.0     0.0     0.0     0.0     0.0     0.0     0.0     0.1     0.1     0.1     0.0     0.0     0.0     0.0     0.1     0.1
   15 087    11    0.00    0.00    0.00    0.00     6.4   0.000   0.006   0.000   0.017     0.1     0.0     0.5     0.0     306    0.00    0.31    0.00    0.47     0.0     0.0     0.0     0.0     0.0     0.0     0.0     0.0     0.0     18.     28.     38.     26.     27.     28.     29.     53.     57.     0.0     0.0     0.0     0.0     0.0     0.0     0.0     0.1     0.1     0.0     0.0     0.0     0.0     0.0     0.0     0.0     0.0     0.0     0.1     0.1     0.1     0.0     0.0     0.0     0.0     0.1     0.1
   15 088    12    0.00    0.00    0.00    0.00     6.7   0.000   0.007   0.000   0.017     0.1     0.0     0.5     0.0     292    0.00    0.29    0.00    0.46     0.0     0.0     0.0     0.0     0.0     0.0     0.0     0.0     0.0     18.     27.     37.     25.     26.     27.     28.     50.     54.     0.0     0.0     0.0     0.0     0.0     0.0     0.0     0.1     0.1     0.0     0.0     0.0     0.0     0.0     0.0     0.0     0.0     0.0     0.1     0.1     0.1     0.0     0.0     0.0     0.0     0.0     0.1
   15 089    13    0.00    0.00    0.00    0.00     7.0   0.000   0.007   0.000   0.018     0.1     0.0     0.5     0.0     276    0.00    0.28    0.00    0.43     0.0     0.0     0.0     0.0     0.0     0.0     0.0     0.0     0.0     17.     25.     35.     24.     25.     26.     26.     48.     51.     0.0     0.0     0.0     0.0     0.0     0.0     0.0     0.0     0.1     0.0     0.0     0.0     0.0     0.0     0.0     0.0     0.0     0.0     0.1     0.1     0.1     0.0     0.0     0.0     0.0     0.0     0.0
   15 090    14    0.00    0.00    0.00    0.00     7.2   0.000   0.007   0.000   0.018     0.1     0.0     0.3     0.0     237    0.00    0.24    0.00    0.32     0.0     0.0     0.0     0.0     0.0     0.0     0.0     0.0     0.0     12.     20.     28.     21.     22.     22.     23.     42.     46.     0.0     0.0     0.0     0.0     0.0     0.0     0.0     0.0     0.0     0.0     0.0     0.0     0.0     0.0     0.0     0.0     0.0     0.0     0.0     0.1     0.1     0.0     0.0     0.0     0.0     0.0     0.0
   15 091    15    0.00    0.00    0.01    0.00     7.4   0.000   0.007   0.000   0.018     0.1     0.0     0.3     0.0     214    0.00    0.21    0.00    0.27     0.0     0.0     0.0     0.0     0.0     0.0     0.0     0.0     0.0     10.     17.     25.     16.     20.     21.     22.     39.     43.     0.0     0.0     0.0     0.0     0.0     0.0     0.0     0.0     0.0     0.0     0.0     0.0     0.0     0.0     0.0     0.0     0.0     0.0     0.0     0.0     0.1     0.0     0.0     0.0     0.0     0.0     0.0
   15 092    16    0.00    0.00    0.01    0.00     7.6   0.000   0.008   0.000   0.018     0.1     0.0     0.2     0.0     182    0.00    0.18    0.00    0.21     0.0     0.0     0.0     0.0     0.0     0.0     0.0     0.0     0.0      8.     14.     22.     14.     15.     18.     19.     35.     38.     0.0     0.0     0.0     0.0     0.0     0.0     0.0     0.0     0.0     0.0     0.0     0.0     0.0     0.0     0.0     0.0     0.0     0.0     0.0     0.0     0.0     0.0     0.0     0.0     0.0     0.0     0.0
   15 093    17    0.00    0.00    0.01    0.00     7.8   0.000   0.008   0.000   0.019     0.1     0.0     0.2     0.0     155    0.00    0.15    0.00    0.17     0.0     0.0     0.0     0.0     0.0     0.0     0.0     0.0     0.0      6.     11.     18.     12.     13.     13.     17.     31.     34.     0.0     0.0     0.0     0.0     0.0     0.0     0.0     0.0     0.0     0.0     0.0     0.0     0.0     0.0     0.0     0.0     0.0     0.0     0.0     0.0     0.0     0.0     0.0     0.0     0.0     0.0     0.0
   15 094    18    0.00    0.00    0.01    0.00     7.9   0.000   0.008   0.000   0.019     0.1     0.0     0.4     0.0     139    0.00    0.14    0.00    0.18     0.0     0.0     0.0     0.0     0.0     0.0     0.0     0.0     0.0      8.     10.     16.     11.     11.     11.     14.     27.     30.     0.0     0.0     0.0     0.0     0.0     0.0     0.0     0.0     0.0     0.0     0.0     0.0     0.0     0.0     0.0     0.0     0.0     0.0     0.0     0.0     0.0     0.0     0.0     0.0     0.0     0.0     0.0
   15 095    19    0.00    0.00    0.01    0.00     8.0   0.000   0.008   0.000   0.019     0.1     0.0     0.2     0.0     120    0.00    0.12    0.00    0.14     0.0     0.0     0.0     0.0     0.0     0.0     0.0     0.0     0.0      5.      9.     14.      9.     10.     10.     12.     23.     27.     0.0     0.0     0.0     0.0     0.0     0.0     0.0     0.0     0.0     0.0     0.0     0.0     0.0     0.0     0.0     0.0     0.0     0.0     0.0     0.0     0.0     0.0     0.0     0.0     0.0     0.0     0.0
   15 096    20    0.00    0.00    0.01    0.00     8.1   0.000   0.008   0.000   0.019     0.1     0.0     0.4     0.0     106    0.00    0.11    0.00    0.15     0.0     0.0     0.0     0.0     0.0     0.0     0.0     0.0     0.0      6.      8.     13.      8.      9.      9.     11.     20.     23.     0.0     0.0     0.0     0.0     0.0     0.0     0.0     0.0     0.0     0.0     0.0     0.0     0.0     0.0     0.0     0.0     0.0     0.0     0.0     0.0     0.0     0.0     0.0     0.0     0.0     0.0     0.0
   15 097    21    0.00    0.00    0.01    0.00     8.2   0.000   0.008   0.000   0.019     0.2     0.0     0.5     0.0     100    0.00    0.10    0.00    0.15     0.0     0.0     0.0     0.0     0.0     0.0     0.0     0.0     0.0      6.      7.     12.      7.      9.      9.     10.     18.     21.     0.0     0.0     0.0     0.0     0.0     0.0     0.0     0.0     0.0     0.0     0.0     0.0     0.0     0.0     0.0     0.0     0.0     0.0     0.0     0.0     0.0     0.0     0.0     0.0     0.0     0.0     0.0
   15 098    22    0.00    0.00    0.01    0.00     8.3   0.000   0.008   0.000   0.019     0.2     0.0     0.5     0.0      95    0.00    0.09    0.00    0.15     0.0     0.0     0.0     0.0     0.0     0.0     0.0     0.0     0.0      6.      7.     12.      8.      9.      9.      9.     16.     19.     0.0     0.0     0.0     0.0     0.0     0.0     0.0     0.0     0.0     0.0     0.0     0.0     0.0     0.0     0.0     0.0     0.0     0.0     0.0     0.0     0.0     0.0     0.0     0.0     0.0     0.0     0.0
   15 099    23    0.00    0.00    0.01    0.00     9.9   0.000   0.010   0.000   0.025     0.4     0.0     1.4     0.0    1565    0.00    1.56    0.00    5.38     0.0     0.0     0.0     0.0     0.0     0.0     0.0     0.0     0.0   1480.      7.     12.      8.      8.      8.      8.     15.     17.     1.5     0.0     0.0     0.0     0.0     0.0     0.0     0.0     0.0     0.0     0.0     0.0     0.0     0.0     0.0     0.0     0.0     0.0     5.3     0.0     0.0     0.0     0.0     0.0     0.0     0.0     0.0
   15 100    24    0.00    0.00    0.01    0.00    12.0   0.000   0.012   0.000   0.032     0.7     0.0     2.5     0.0    2065    0.00    2.06    0.00    7.31     0.0     0.0     0.0     0.0     0.0     0.0     0.0     0.0     0.0   1980.      7.     12.      8.      9.      8.      8.     15.     17.     2.0     0.0     0.0     0.0     0.0     0.0     0.0     0.0     0.0     0.0     0.0     0.0     0.0     0.0     0.0     0.0     0.0     0.0     7.2     0.0     0.0     0.0     0.0     0.0     0.0     0.0     0.0
   15 101    25    0.00    0.00    0.02    0.00    14.5   0.000   0.014   0.000   0.041     1.1     0.0     3.8     0.0    2503    0.00    2.50    0.00    9.32     0.0     0.0     0.0     0.0     0.0     0.0     0.0     0.0     0.0   2416.      8.     13.      9.      9.      9.      9.     15.     17.     2.4     0.0     0.0     0.0     0.0     0.0     0.0     0.0     0.0     0.0     0.0     0.0     0.0     0.0     0.0     0.0     0.0     0.0     9.2     0.0     0.0     0.0     0.0     0.0     0.0     0.0     0.0
   15 102    26    0.01    0.00    0.02    0.00    17.4   0.000   0.017   0.000   0.053     1.4     0.0     5.4     0.0    2900    0.00    2.90    0.00   11.56     0.0     0.0     0.0     0.0     0.0     0.0     0.0     0.0     0.0   2807.      8.     14.      9.      9.      9.      9.     16.     18.     2.8     0.0     0.0     0.0     0.0     0.0     0.0     0.0     0.0     0.0     0.0     0.0     0.0     0.0     0.0     0.0     0.0     0.0    11.4     0.0     0.0     0.0     0.0     0.0     0.0     0.0     0.0
   15 103    27    0.01    0.00    0.03    0.00    20.5   0.000   0.020   0.000   0.066     1.8     0.0     7.0     0.0    3112    0.00    3.11    0.00   13.14     0.0     0.0     0.0     0.0     0.0     0.0     0.0     0.0     0.0   3015.      7.     14.      9.     10.     10.     10.     18.     20.     3.0     0.0     0.0     0.0     0.0     0.0     0.0     0.0     0.0     0.0     0.0     0.0     0.0     0.0     0.0     0.0     0.0     0.0    13.0     0.0     0.0     0.0     0.0     0.0     0.0     0.0     0.0
   15 104    28    0.01    0.00    0.04    0.00    23.3   0.000   0.023   0.000   0.079     2.0     0.0     8.2     0.0    2819    0.00    2.82    0.00   12.47     0.0     0.0     0.0     0.0     0.0     0.0     0.0     0.0     0.0   2721.      5.     14.      9.     10.     10.     10.     20.     22.     2.7     0.0     0.0     0.0     0.0     0.0     0.0     0.0     0.0     0.0     0.0     0.0     0.0     0.0     0.0     0.0     0.0     0.0    12.3     0.0     0.0     0.0     0.0     0.0     0.0     0.0     0.0
   15 105    29    0.01    0.00    0.04    0.00    25.7   0.000   0.026   0.000   0.090     2.1     0.0     8.9     0.0    2405    0.00    2.41    0.00   11.05     0.0     0.0     0.0     0.0     0.0     0.0     0.0     0.0     0.0   2307.      2.     13.      9.     10.     10.     10.     21.     24.     2.3     0.0     0.0     0.0     0.0     0.0     0.0     0.0     0.0     0.0     0.0     0.0     0.0     0.0     0.0     0.0     0.0     0.0    10.9     0.0     0.0     0.0     0.0     0.0     0.0     0.0     0.0
   15 106    30    0.01    0.00    0.05    0.00    27.8   0.000   0.028   0.000   0.100     2.2     0.0     9.3     0.0    2098    0.00    2.10    0.00    9.94     0.0     0.0     0.0     0.0     0.0     0.0     0.0     0.0     0.0   1998.      0.     12.      8.     10.     10.     11.     23.     26.     2.0     0.0     0.0     0.0     0.0     0.0     0.0     0.0     0.0     0.0     0.0     0.0     0.0     0.0     0.0     0.0     0.0     0.0     9.8     0.0     0.0     0.0     0.0     0.0     0.0     0.0     0.0
   15 107    31    0.02    0.00    0.06    0.00    29.7   0.000   0.030   0.000   0.109     2.2     0.0     9.4     0.0    1907    0.00    1.91    0.00    9.19     0.0     0.0     0.0     0.0     0.0     0.0     0.0     0.0     0.0   1799.      0.     12.      8.     10.     10.     12.     26.     29.     1.8     0.0     0.0     0.0     0.0     0.0     0.0     0.0     0.0     0.0     0.0     0.0     0.0     0.0     0.0     0.0     0.0     0.0     9.1     0.0     0.0     0.0     0.0     0.0     0.0     0.0     0.0
   15 108    32    0.02    0.00    0.07    0.00    31.1   0.000   0.031   0.000   0.110     0.7     0.0     2.6     0.0    1361    0.00    1.36    0.00    0.73     0.0     0.0     0.0     0.0     0.0     0.0     0.0     0.0     0.0   1256.      0.      9.      7.      8.     11.     12.     27.     30.     1.3     0.0     0.0     0.0     0.0     0.0     0.0     0.0     0.0     0.0     0.0     0.0     0.0     0.0     0.0     0.0     0.0     0.0     0.6     0.0     0.0     0.0     0.0     0.0     0.0     0.0     0.0
   15 109    33    0.02    0.00    0.07    0.00    32.8   0.000   0.033   0.000   0.113     1.6     0.0     5.5     0.0    1741    0.00    1.74    0.00    3.00     0.0     0.0     0.0     0.0     0.0     0.0     0.0     0.0     0.0   1637.      0.      9.      6.      9.     10.     12.     27.     30.     1.6     0.0     0.0     0.0     0.0     0.0     0.0     0.0     0.0     0.0     0.0     0.0     0.0     0.0     0.0     0.0     0.0     0.0     2.9     0.0     0.0     0.0     0.0     0.0     0.0     0.0     0.0
   15 110    34    0.02    0.00    0.08    0.00    34.3   0.000   0.034   0.000   0.118     2.0     0.0     7.0     0.0    1528    0.00    1.53    0.00    5.52     0.0     0.0     0.0     0.0     0.0     0.0     0.0     0.0     0.0   1426.      0.      9.      7.      9.      9.     11.     26.     29.     1.4     0.0     0.0     0.0     0.0     0.0     0.0     0.0     0.0     0.0     0.0     0.0     0.0     0.0     0.0     0.0     0.0     0.0     5.4     0.0     0.0     0.0     0.0     0.0     0.0     0.0     0.0
   15 111    35    0.02    0.00    0.09    0.00    35.6   0.000   0.036   0.000   0.122     1.9     0.0     6.6     0.0    1214    0.00    1.21    0.00    4.37     0.0     0.0     0.0     0.0     0.0     0.0     0.0     0.0     0.0   1120.      0.      8.      7.      8.      9.     10.     25.     27.     1.1     0.0     0.0     0.0     0.0     0.0     0.0     0.0     0.0     0.0     0.0     0.0     0.0     0.0     0.0     0.0     0.0     0.0     4.3     0.0     0.0     0.0     0.0     0.0     0.0     0.0     0.0
   15 112    36    0.02    0.00    0.09    0.00    36.5   0.000   0.037   0.000   0.126     1.7     0.0     6.1     0.0     990    0.00    0.99    0.00    3.66     0.0     0.0     0.0     0.0     0.0     0.0     0.0     0.0     0.0    902.      0.      8.      6.      7.      8.      9.     23.     26.     0.9     0.0     0.0     0.0     0.0     0.0     0.0     0.0     0.0     0.0     0.0     0.0     0.0     0.0     0.0     0.0     0.0     0.0     3.6     0.0     0.0     0.0     0.0     0.0     0.0     0.0     0.0
   15 113    37    0.03    0.00    0.10    0.00    37.4   0.000   0.037   0.000   0.130     1.6     0.0     5.8     0.0     889    0.00    0.89    0.00    3.49     0.0     0.0     0.0     0.0     0.0     0.0     0.0     0.0     0.0    803.      0.      8.      6.      7.      8.      9.     22.     25.     0.8     0.0     0.0     0.0     0.0     0.0     0.0     0.0     0.0     0.0     0.0     0.0     0.0     0.0     0.0     0.0     0.0     0.0     3.4     0.0     0.0     0.0     0.0     0.0     0.0     0.0     0.0
   15 114    38    0.03    0.00    0.10    0.00    38.2   0.000   0.038   0.000   0.133     1.5     0.0     5.5     0.0     811    0.00    0.81    0.00    3.38     0.0     0.0     0.0     0.0     0.0     0.0     0.0     0.0     0.0    726.      0.      8.      6.      7.      8.      9.     22.     25.     0.7     0.0     0.0     0.0     0.0     0.0     0.0     0.0     0.0     0.0     0.0     0.0     0.0     0.0     0.0     0.0     0.0     0.0     3.3     0.0     0.0     0.0     0.0     0.0     0.0     0.0     0.0
   15 115    39    0.03    0.00    0.11    0.00    38.9   0.000   0.039   0.000   0.136     1.4     0.0     5.1     0.0     696    0.00    0.70    0.00    3.00     0.0     0.0     0.0     0.0     0.0     0.0     0.0     0.0     0.0    610.      0.      8.      6.      7.      8.      9.     22.     25.     0.6     0.0     0.0     0.0     0.0     0.0     0.0     0.0     0.0     0.0     0.0     0.0     0.0     0.0     0.0     0.0     0.0     0.0     2.9     0.0     0.0     0.0     0.0     0.0     0.0     0.0     0.0
   15 116    40    0.03    0.00    0.11    0.00    39.7   0.000   0.040   0.000   0.139     1.2     0.0     4.6     0.0     733    0.00    0.73    0.00    2.93     0.0     0.0     0.0     0.0     0.0     0.0     0.0     0.0     0.0    644.      0.      8.      7.      8.      9.     10.     23.     25.     0.6     0.0     0.0     0.0     0.0     0.0     0.0     0.0     0.0     0.0     0.0     0.0     0.0     0.0     0.0     0.0     0.0     0.0     2.8     0.0     0.0     0.0     0.0     0.0     0.0     0.0     0.0
   15 117    41    0.03    0.00    0.12    0.00    40.4   0.000   0.040   0.000   0.141     1.1     0.0     4.2     0.0     697    0.00    0.70    0.00    2.62     0.0     0.0     0.0     0.0     0.0     0.0     0.0     0.0     0.0    602.      0.      9.      7.      8.      9.     10.     24.     26.     0.6     0.0     0.0     0.0     0.0     0.0     0.0     0.0     0.0     0.0     0.0     0.0     0.0     0.0     0.0     0.0     0.0     0.0     2.5     0.0     0.0     0.0     0.0     0.0     0.0     0.0     0.0
   15 118    42    0.03    0.00    0.12    0.00    41.0   0.000   0.041   0.000   0.144     1.0     0.0     3.7     0.0     644    0.00    0.64    0.00    2.20     0.0     0.0     0.0     0.0     0.0     0.0     0.0     0.0     0.0    541.      0.     10.      8.      9.     10.     11.     26.     28.     0.5     0.0     0.0     0.0     0.0     0.0     0.0     0.0     0.0     0.0     0.0     0.0     0.0     0.0     0.0     0.0     0.0     0.0     2.1     0.0     0.0     0.0     0.0     0.0     0.0     0.0     0.0
   15 119    43    0.03    0.00    0.12    0.00    41.5   0.000   0.041   0.000   0.144     0.5     0.0     1.7     0.0     451    0.00    0.45    0.00    0.40     0.0     0.0     0.0     0.0     0.0     0.0     0.0     0.0     0.0    342.      1.     11.      9.     10.     11.     12.     28.     29.     0.3     0.0     0.0     0.0     0.0     0.0     0.0     0.0     0.0     0.0     0.0     0.0     0.0     0.0     0.0     0.0     0.0     0.0     0.3     0.0     0.0     0.0     0.0     0.0     0.0     0.0     0.0
   15 120    44    0.03    0.00    0.13    0.00    42.0   0.000   0.042   0.000   0.146     0.9     0.0     3.0     0.0     517    0.00    0.52    0.00    1.56     0.0     0.0     0.0     0.0     0.0     0.0     0.0     0.0     0.0    405.      1.     11.      9.     10.     11.     12.     28.     29.     0.4     0.0     0.0     0.0     0.0     0.0     0.0     0.0     0.0     0.0     0.0     0.0     0.0     0.0     0.0     0.0     0.0     0.0     1.4     0.0     0.0     0.0     0.0     0.0     0.0     0.0     0.0
   15 121    45    0.03    0.00    0.13    0.00    42.4   0.000   0.042   0.000   0.147     0.8     0.0     2.9     0.0     446    0.00    0.45    0.00    1.43     0.0     0.0     0.0     0.0     0.0     0.0     0.0     0.0     0.0    330.      1.     12.     10.     10.     12.     12.     29.     30.     0.3     0.0     0.0     0.0     0.0     0.0     0.0     0.0     0.0     0.0     0.0     0.0     0.0     0.0     0.0     0.0     0.0     0.0     1.3     0.0     0.0     0.0     0.0     0.0     0.0     0.0     0.0
   15 122    46    0.03    0.00    0.13    0.00    42.7   0.000   0.043   0.000   0.147     0.3     0.0     0.9     0.0     245    0.00    0.25    0.00    0.17     0.0     0.0     0.0     0.0     0.0     0.0     0.0     0.0     0.0    144.      1.      7.      7.      8.     11.     12.     27.     28.     0.1     0.0     0.0     0.0     0.0     0.0     0.0     0.0     0.0     0.0     0.0     0.0     0.0     0.0     0.0     0.0     0.0     0.0     0.1     0.0     0.0     0.0     0.0     0.0     0.0     0.0     0.0
   15 123    47    0.03    0.00    0.13    0.00    42.9   0.000   0.043   0.000   0.148     0.5     0.0     1.5     0.0     259    0.00    0.26    0.00    0.27     0.0     0.0     0.0     0.0     0.0     0.0     0.0     0.0     0.0    163.      2.      8.      6.      7.      9.     11.     26.     27.     0.2     0.0     0.0     0.0     0.0     0.0     0.0     0.0     0.0     0.0     0.0     0.0     0.0     0.0     0.0     0.0     0.0     0.0     0.2     0.0     0.0     0.0     0.0     0.0     0.0     0.0     0.0
   15 124    48    0.03    0.00    0.13    0.00    43.1   0.000   0.043   0.000   0.148     0.3     0.0     0.9     0.0     211    0.00    0.21    0.00    0.15     0.0     0.0     0.0     0.0     0.0     0.0     0.0     0.0     0.0    113.      2.      8.      7.      7.      9.     10.     27.     28.     0.1     0.0     0.0     0.0     0.0     0.0     0.0     0.0     0.0     0.0     0.0     0.0     0.0     0.0     0.0     0.0     0.0     0.0     0.1     0.0     0.0     0.0     0.0     0.0     0.0     0.0     0.0
   15 125    49    0.04    0.00    0.13    0.00    43.4   0.000   0.043   0.000   0.148     0.6     0.0     1.7     0.0     289    0.00    0.29    0.00    0.56     0.0     0.0     0.0     0.0     0.0     0.0     0.0     0.0     0.0    169.      4.     12.      9.     10.     11.     12.     31.     31.     0.2     0.0     0.0     0.0     0.0     0.0     0.0     0.0     0.0     0.0     0.0     0.0     0.0     0.0     0.0     0.0     0.0     0.0     0.4     0.0     0.0     0.0     0.0     0.0     0.0     0.0     0.0
   15 126    50    0.04    0.00    0.13    0.03    43.7   0.004   0.044   0.024   0.156     0.7     0.8     1.8    28.5     279    4.14    0.28   24.34    7.64     4.7     8.1     8.5     4.7     2.5     0.0     0.0     0.0     0.0    139.      6.     16.     12.     12.     13.     14.     32.     35.     0.8     1.4     1.4     0.5     0.2     0.0     0.0     0.0     0.0     4.0     6.7     7.1     4.2     2.3     0.0     0.0     0.0     0.0     1.9     2.9     2.0     0.5     0.2     0.0     0.0     0.0     0.0
   15 127    51    0.04    0.00    0.14    0.14    43.9   0.020   0.044   0.123   0.165     0.4     1.5     0.9   115.0     213   16.02    0.21   98.98    8.86    12.3    36.8    43.8    14.9     5.6     1.6     0.0     0.0     0.0     69.      5.     12.     12.     13.     15.     15.     35.     38.     1.2     5.1     7.4     1.8     0.4     0.1     0.0     0.0     0.0    11.2    31.6    36.3    13.0     5.2     1.6     0.0     0.0     0.0     0.7     2.5     4.1     1.1     0.3     0.1     0.0     0.0     0.0
   15 128    52    0.04    0.01    0.14    0.18    44.2   0.025   0.044   0.159   0.171     1.1     4.3     2.0    41.2     265    5.28    0.26   35.90    6.51     1.8    12.5    16.7     6.4     2.7     0.7     0.3     0.0     0.0     90.     10.     18.     15.     16.     17.     17.     39.     41.     0.3     1.5     2.6     0.8     0.2     0.1     0.0     0.0     0.0     1.7    10.9    14.2     5.6     2.5     0.7     0.3     0.0     0.0     0.7     1.9     2.8     0.7     0.2     0.1     0.0     0.0     0.0
   15 129    53    0.04    0.01    0.14    0.19    44.5   0.027   0.044   0.167   0.174     1.4     5.9     2.2     9.0     269    1.11    0.27    7.86    2.53     0.0     1.7     4.3     1.8     0.9     0.1     0.2     0.0     0.0     68.     15.     23.     18.     18.     20.     19.     44.     44.     0.1     0.2     0.6     0.2     0.1     0.0     0.0     0.0     0.0     0.0     1.5     3.7     1.6     0.8     0.1     0.1     0.0     0.0     0.3     0.6     1.1     0.3     0.1     0.0     0.0     0.0     0.0
   15 130    54    0.04    0.02    0.14    0.20    44.7   0.027   0.045   0.173   0.175     1.1     5.2     1.7     6.5     251    0.73    0.25    5.73    1.73     0.0     1.6     2.1     1.4     0.8     0.2     0.3     0.0     0.0     44.     17.     23.     19.     19.     20.     20.     45.     45.     0.0     0.2     0.3     0.2     0.1     0.0     0.0     0.0     0.0     0.0     1.4     1.8     1.3     0.8     0.2     0.3     0.0     0.0     0.1     0.5     0.6     0.2     0.1     0.0     0.0     0.0     0.0
   15 131    55    0.04    0.03    0.14    0.20    45.0   0.027   0.045   0.173   0.176     1.6     7.5     2.2     0.7     254    0.06    0.25    0.62    0.53     0.0     0.0     0.0     0.2     0.3     0.0     0.2     0.0     0.0     39.     19.     25.     19.     18.     24.     19.     48.     43.     0.0     0.0     0.0     0.0     0.0     0.0     0.0     0.0     0.0     0.0     0.0     0.0     0.2     0.3     0.0     0.2     0.0     0.0     0.2     0.1     0.1     0.1     0.1     0.0     0.0     0.0     0.0
   15 132    56    0.04    0.03    0.15    0.20    45.2   0.027   0.045   0.173   0.177     1.6     7.9     2.2     0.0     274    0.00    0.27    0.00    0.49     0.0     0.0     0.0     0.0     0.0     0.0     0.0     0.0     0.0     35.     21.     26.     24.     23.     25.     24.     50.     45.     0.0     0.0     0.0     0.0     0.0     0.0     0.0     0.1     0.0     0.0     0.0     0.0     0.0     0.0     0.0     0.0     0.0     0.0     0.2     0.1     0.1     0.0     0.0     0.0     0.0     0.0     0.0
   15 133    57    0.05    0.04    0.15    0.20    45.5   0.027   0.046   0.173   0.177     1.7     8.2     2.1     0.0     294    0.00    0.29    0.00    0.52     0.0     0.0     0.0     0.0     0.0     0.0     0.0     0.0     0.0     33.     26.     29.     26.     25.     27.     26.     54.     48.     0.0     0.0     0.0     0.0     0.0     0.0     0.0     0.1     0.0     0.0     0.0     0.0     0.0     0.0     0.0     0.0     0.0     0.0     0.2     0.1     0.1     0.0     0.0     0.0     0.0     0.1     0.0
   15 134    58    0.05    0.05    0.15    0.20    45.8   0.027   0.046   0.173   0.178     1.6     7.9     2.0     0.0     307    0.00    0.31    0.00    0.52     0.0     0.0     0.0     0.0     0.0     0.0     0.0     0.0     0.0     31.     29.     31.     27.     26.     28.     27.     56.     50.     0.0     0.0     0.0     0.0     0.0     0.0     0.0     0.1     0.1     0.0     0.0     0.0     0.0     0.0     0.0     0.0     0.0     0.0     0.1     0.1     0.1     0.0     0.0     0.0     0.0     0.1     0.0
   15 135    59    0.05    0.06    0.15    0.20    46.2   0.027   0.046   0.173   0.178     1.6     8.0     1.9     0.0     318    0.00    0.32    0.00    0.54     0.0     0.0     0.0     0.0     0.0     0.0     0.0     0.0     0.0     30.     32.     32.     28.     27.     29.     28.     58.     52.     0.0     0.0     0.0     0.0     0.0     0.0     0.0     0.1     0.1     0.0     0.0     0.0     0.0     0.0     0.0     0.0     0.0     0.0     0.1     0.1     0.1     0.0     0.0     0.0     0.0     0.1     0.0
   15 136    60    0.05    0.06    0.15    0.20    46.5   0.027   0.046   0.173   0.179     1.6     7.8     1.8     0.0     317    0.00    0.32    0.00    0.54     0.0     0.0     0.0     0.0     0.0     0.0     0.0     0.0     0.0     27.     34.     33.     28.     27.     29.     28.     58.     52.     0.0     0.0     0.0     0.0     0.0     0.0     0.0     0.1     0.1     0.0     0.0     0.0     0.0     0.0     0.0     0.0     0.0     0.0     0.1     0.1     0.1     0.0     0.0     0.0     0.0     0.1     0.0
   15 137    61    0.05    0.07    0.16    0.20    46.8   0.027   0.047   0.173   0.179     1.5     7.6     1.8     0.0     319    0.00    0.32    0.00    0.55     0.0     0.0     0.0     0.0     0.0     0.0     0.0     0.0     0.0     26.     36.     33.     28.     27.     29.     28.     59.     52.     0.0     0.0     0.0     0.0     0.0     0.0     0.0     0.1     0.1     0.0     0.0     0.0     0.0     0.0     0.0     0.0     0.0     0.0     0.1     0.1     0.1     0.0     0.0     0.0     0.0     0.1     0.0
   15 138    62    0.05    0.08    0.16    0.20    47.1   0.027   0.047   0.173   0.180     1.5     7.3     1.7     0.0     307    0.00    0.31    0.00    0.52     0.0     0.0     0.0     0.0     0.0     0.0     0.0     0.0     0.0     23.     35.     32.     27.     26.     28.     27.     57.     51.     0.0     0.0     0.0     0.0     0.0     0.0     0.0     0.1     0.1     0.0     0.0     0.0     0.0     0.0     0.0     0.0     0.0     0.0     0.1     0.1     0.1     0.0     0.0     0.0     0.0     0.1     0.0
   15 139    63    0.05    0.09    0.16    0.20    47.4   0.027   0.047   0.173   0.180     1.5     7.2     1.6     0.0     301    0.00    0.30    0.00    0.52     0.0     0.0     0.0     0.0     0.0     0.0     0.0     0.0     0.0     22.     35.     31.     27.     26.     28.     27.     56.     50.     0.0     0.0     0.0     0.0     0.0     0.0     0.0     0.1     0.1     0.0     0.0     0.0     0.0     0.0     0.0     0.0     0.0     0.0     0.1     0.1     0.1     0.0     0.0     0.0     0.0     0.1     0.0
   15 140    64    0.05    0.09    0.16    0.20    47.7   0.027   0.048   0.173   0.181     0.6     2.8     0.6     0.0     287    0.00    0.29    0.00    0.37     0.0     0.0     0.0     0.0     0.0     0.0     0.0     0.0     0.0     13.     32.     31.     27.     25.     28.     26.     55.     50.     0.0     0.0     0.0     0.0     0.0     0.0     0.0     0.1     0.0     0.0     0.0     0.0     0.0     0.0     0.0     0.0     0.0     0.0     0.0     0.1     0.1     0.0     0.0     0.0     0.0     0.1     0.0
   15 141    65    0.06    0.09    0.16    0.20    47.9   0.027   0.048   0.173   0.181     0.5     2.3     0.5     0.0     252    0.00    0.25    0.00    0.25     0.0     0.0     0.0     0.0     0.0     0.0     0.0     0.0     0.0     11.     19.     22.     21.     24.     27.     25.     54.     48.     0.0     0.0     0.0     0.0     0.0     0.0     0.0     0.1     0.0     0.0     0.0     0.0     0.0     0.0     0.0     0.0     0.0     0.0     0.0     0.0     0.0     0.0     0.0     0.0     0.0     0.1     0.0
   15 142    66    0.06    0.10    0.16    0.20    48.2   0.027   0.048   0.173   0.181     0.8     3.9     0.9     0.0     247    0.00    0.25    0.00    0.24     0.0     0.0     0.0     0.0     0.0     0.0     0.0     0.0     0.0     16.     27.     22.     19.     19.     22.     24.     52.     47.     0.0     0.0     0.0     0.0     0.0     0.0     0.0     0.1     0.0     0.0     0.0     0.0     0.0     0.0     0.0     0.0     0.0     0.0     0.0     0.0     0.0     0.0     0.0     0.0     0.0     0.0     0.0
   15 143    67    0.06    0.10    0.16    0.20    48.4   0.027   0.048   0.173   0.181     1.3     6.2     1.4     0.0     252    0.00    0.25    0.00    0.37     0.0     0.0     0.0     0.0     0.0     0.0     0.0     0.0     0.0     18.     33.     25.     20.     19.     21.     23.     49.     45.     0.0     0.0     0.0     0.0     0.0     0.0     0.0     0.0     0.0     0.0     0.0     0.0     0.0     0.0     0.0     0.0     0.0     0.0     0.1     0.1     0.0     0.0     0.0     0.0     0.0     0.0     0.0
   15 144    68    0.06    0.11    0.16    0.20    48.7   0.027   0.049   0.174   0.182     1.0     4.8     1.1     0.6     239    0.01    0.24    0.58    0.36     0.2     0.4     0.0     0.0     0.0     0.0     0.0     0.0     0.0     15.     33.     24.     19.     18.     20.     22.     46.     42.     0.0     0.0     0.0     0.0     0.0     0.0     0.0     0.0     0.0     0.2     0.4     0.0     0.0     0.0     0.0     0.0     0.0     0.0     0.0     0.1     0.0     0.0     0.0     0.0     0.0     0.0     0.0
   15 145    69    0.06    0.11    0.16    0.20    48.9   0.027   0.049   0.175   0.182     1.1     5.1     1.1     0.6     230    0.03    0.23    0.56    0.41     0.1     0.1     0.1     0.3     0.0     0.0     0.0     0.0     0.0     15.     33.     24.     19.     18.     19.     18.     44.     41.     0.0     0.0     0.0     0.0     0.0     0.0     0.0     0.0     0.0     0.1     0.1     0.1     0.3     0.0     0.0     0.0     0.0     0.0     0.0     0.1     0.1     0.1     0.0     0.0     0.0     0.0     0.0
   15 146    70    0.06    0.12    0.17    0.20    49.2   0.027   0.049   0.175   0.183     1.1     5.4     1.2     0.0     263    0.00    0.26    0.04    0.45     0.0     0.0     0.0     0.0     0.0     0.0     0.0     0.0     0.0     17.     37.     29.     25.     23.     21.     23.     47.     42.     0.0     0.0     0.0     0.0     0.0     0.0     0.0     0.0     0.0     0.0     0.0     0.0     0.0     0.0     0.0     0.0     0.0     0.0     0.1     0.1     0.1     0.0     0.0     0.0     0.0     0.0     0.0
   15 147    71    0.06    0.12    0.17    0.20    49.4   0.027   0.049   0.175   0.183     1.0     5.0     1.2     0.0     273    0.00    0.27    0.00    0.47     0.0     0.0     0.0     0.0     0.0     0.0     0.0     0.0     0.0     17.     38.     29.     25.     23.     26.     23.     47.     43.     0.0     0.0     0.0     0.0     0.0     0.0     0.0     0.0     0.0     0.0     0.0     0.0     0.0     0.0     0.0     0.0     0.0     0.0     0.1     0.1     0.1     0.0     0.0     0.0     0.0     0.0     0.0
   15 148    72    0.06    0.13    0.17    0.20    49.7   0.027   0.050   0.175   0.184     1.0     4.6     1.1     0.0     270    0.00    0.27    0.00    0.46     0.0     0.0     0.0     0.0     0.0     0.0     0.0     0.0     0.0     17.     38.     29.     25.     23.     26.     23.     47.     42.     0.0     0.0     0.0     0.0     0.0     0.0     0.0     0.0     0.0     0.0     0.0     0.0     0.0     0.0     0.0     0.0     0.0     0.0     0.1     0.1     0.1     0.0     0.0     0.0     0.0     0.0     0.0
   15 149    73    0.06    0.13    0.17    0.20    50.0   0.027   0.050   0.175   0.184     0.9     4.4     1.1     0.0     271    0.00    0.27    0.00    0.47     0.0     0.0     0.0     0.0     0.0     0.0     0.0     0.0     0.0     17.     38.     29.     25.     23.     26.     23.     47.     43.     0.0     0.0     0.0     0.0     0.0     0.0     0.0     0.0     0.0     0.0     0.0     0.0     0.0     0.0     0.0     0.0     0.0     0.0     0.1     0.1     0.1     0.0     0.0     0.0     0.0     0.0     0.0
   15 150    74    0.06    0.14    0.17    0.20    50.3   0.027   0.050   0.175   0.185     0.9     4.1     1.0     0.0     283    0.00    0.28    0.00    0.50     0.0     0.0     0.0     0.0     0.0     0.0     0.0     0.0     0.0     17.     41.     30.     26.     24.     27.     24.     49.     44.     0.0     0.0     0.0     0.0     0.0     0.0     0.0     0.0     0.0     0.0     0.0     0.0     0.0     0.0     0.0     0.0     0.0     0.0     0.1     0.1     0.1     0.0     0.0     0.0     0.0     0.0     0.0
   15 151    75    0.07    0.14    0.17    0.20    50.5   0.027   0.051   0.175   0.185     0.8     3.8     1.0     0.0     283    0.00    0.28    0.00    0.49     0.0     0.0     0.0     0.0     0.0     0.0     0.0     0.0     0.0     15.     41.     31.     26.     25.     27.     24.     50.     45.     0.0     0.0     0.0     0.0     0.0     0.0     0.0     0.1     0.0     0.0     0.0     0.0     0.0     0.0     0.0     0.0     0.0     0.0     0.1     0.1     0.1     0.0     0.0     0.0     0.0     0.0     0.0
   15 152    76    0.07    0.14    0.17    0.20    50.8   0.027   0.051   0.175   0.186     0.8     3.5     0.9     0.0     297    0.00    0.30    0.00    0.52     0.0     0.0     0.0     0.0     0.0     0.0     0.0     0.0     0.0     14.     43.     33.     28.     26.     29.     26.     53.     47.     0.0     0.0     0.0     0.0     0.0     0.0     0.0     0.1     0.0     0.0     0.0     0.0     0.0     0.0     0.0     0.0     0.0     0.0     0.1     0.1     0.1     0.0     0.0     0.0     0.0     0.0     0.0
   15 153    77    0.07    0.15    0.18    0.20    56.2   0.027   0.056   0.175   0.213     1.8     3.1     6.5     0.0    5331    0.00    5.33    0.00   27.57     0.0     0.0     0.0     0.0     0.0     0.0     0.0     0.0     0.0   5007.     49.     38.     32.     30.     33.     30.     60.     52.     5.0     0.0     0.0     0.0     0.0     0.0     0.0     0.1     0.1     0.0     0.0     0.0     0.0     0.0     0.0     0.0     0.0     0.0    27.1     0.2     0.1     0.0     0.0     0.0     0.0     0.1     0.0
   15 154    78    0.07    0.15    0.19    0.20    61.3   0.027   0.061   0.175   0.240     2.5     2.9    11.0     0.0    5154    0.00    5.15    0.00   27.15     0.0     0.0     0.0     0.0     0.0     0.0     0.0     0.0     0.0   4792.     53.     43.     37.     34.     37.     33.     67.     58.     4.8     0.1     0.0     0.0     0.0     0.0     0.0     0.1     0.1     0.0     0.0     0.0     0.0     0.0     0.0     0.0     0.0     0.0    26.6     0.2     0.1     0.1     0.0     0.0     0.0     0.1     0.1
   15 155    79    0.07    0.15    0.20    0.20    65.9   0.027   0.066   0.175   0.265     3.0     2.6    13.9     0.0    4553    0.00    4.55    0.00   24.22     0.0     0.0     0.0     0.0     0.0     0.0     0.0     0.0     0.0   4162.     54.     46.     40.     37.     41.     37.     73.     62.     4.2     0.1     0.0     0.0     0.0     0.0     0.0     0.1     0.1     0.0     0.0     0.0     0.0     0.0     0.0     0.0     0.0     0.0    23.6     0.2     0.1     0.1     0.1     0.0     0.0     0.1     0.1
   15 156    80    0.08    0.15    0.22    0.20    69.9   0.027   0.070   0.175   0.286     3.2     2.4    15.6     0.0    3989    0.00    3.99    0.00   21.29     0.0     0.0     0.0     0.0     0.0     0.0     0.0     0.0     0.0   3570.     54.     48.     44.     41.     44.     40.     80.     68.     3.6     0.1     0.0     0.0     0.0     0.0     0.0     0.1     0.1     0.0     0.0     0.0     0.0     0.0     0.0     0.0     0.0     0.0    20.6     0.2     0.1     0.1     0.1     0.0     0.0     0.1     0.1
   15 157    81    0.08    0.16    0.24    0.20    73.4   0.027   0.073   0.175   0.305     3.3     2.1    16.5     0.0    3557    0.00    3.56    0.00   18.93     0.0     0.0     0.0     0.0     0.0     0.0     0.0     0.0     0.0   3102.     55.     50.     48.     45.     49.     45.     89.     74.     3.1     0.1     0.0     0.0     0.0     0.0     0.0     0.1     0.1     0.0     0.0     0.0     0.0     0.0     0.0     0.0     0.0     0.0    18.2     0.2     0.1     0.1     0.1     0.1     0.0     0.1     0.1
   15 158    82    0.08    0.16    0.25    0.20    78.4   0.027   0.078   0.175   0.326     3.3     1.7    15.8     0.0    4947    0.00    4.95    0.00   21.68     0.0     0.0     0.0     0.0     0.0     0.0     0.0     0.0     0.0   4478.     52.     48.     48.     47.     52.     47.     94.     79.     4.5     0.1     0.0     0.0     0.0     0.1     0.0     0.1     0.1     0.0     0.0     0.0     0.0     0.0     0.0     0.0     0.0     0.0    20.9     0.2     0.1     0.1     0.1     0.1     0.1     0.1     0.1
   15 159    83    0.09    0.16    0.27    0.20    81.3   0.027   0.081   0.175   0.340     3.4     1.6    16.1     0.0    2949    0.00    2.95    0.00   13.66     0.0     0.0     0.0     0.0     0.0     0.0     0.0     0.0     0.0   2476.     49.     46.     47.     47.     54.     49.     99.     82.     2.5     0.0     0.0     0.0     0.0     0.1     0.0     0.1     0.1     0.0     0.0     0.0     0.0     0.0     0.0     0.0     0.0     0.0    12.9     0.2     0.1     0.1     0.1     0.1     0.1     0.1     0.1
   15 160    84    0.09    0.16    0.27    0.20    82.8   0.027   0.083   0.175   0.341     1.0     0.5     4.3     0.0    1479    0.00    1.48    0.00    1.15     0.0     0.0     0.0     0.0     0.0     0.0     0.0     0.0     0.0   1036.     42.     40.     42.     43.     52.     48.     96.     81.     1.0     0.0     0.0     0.0     0.0     0.1     0.0     0.1     0.1     0.0     0.0     0.0     0.0     0.0     0.0     0.0     0.0     0.0     0.5     0.1     0.1     0.1     0.1     0.1     0.1     0.1     0.1
   15 161    85    0.09    0.16    0.28    0.20    84.3   0.027   0.084   0.175   0.343     1.8     0.9     7.3     0.0    1492    0.00    1.49    0.00    1.83     0.0     0.0     0.0     0.0     0.0     0.0     0.0     0.0     0.0   1078.     47.     34.     36.     38.     48.     44.     91.     77.     1.1     0.0     0.0     0.0     0.0     0.0     0.0     0.1     0.1     0.0     0.0     0.0     0.0     0.0     0.0     0.0     0.0     0.0     1.2     0.2     0.1     0.1     0.1     0.1     0.0     0.1     0.1
   15 162    86    0.09    0.16    0.29    0.20    85.6   0.027   0.086   0.175   0.347     2.7     1.4    10.9     0.0    1287    0.00    1.29    0.00    4.36     0.0     0.0     0.0     0.0     0.0     0.0     0.0     0.0     0.0    902.     49.     29.     31.     34.     44.     41.     85.     73.     0.9     0.0     0.0     0.0     0.0     0.0     0.0     0.1     0.1     0.0     0.0     0.0     0.0     0.0     0.0     0.0     0.0     0.0     3.8     0.2     0.1     0.0     0.0     0.0     0.0     0.1     0.1
   15 163    87    0.09    0.16    0.30    0.20    86.6   0.027   0.087   0.175   0.351     2.4     1.2     9.5     0.0     982    0.00    0.98    0.00    3.16     0.0     0.0     0.0     0.0     0.0     0.0     0.0     0.0     0.0    612.     51.     27.     29.     31.     42.     39.     81.     71.     0.6     0.1     0.0     0.0     0.0     0.0     0.0     0.1     0.1     0.0     0.0     0.0     0.0     0.0     0.0     0.0     0.0     0.0     2.6     0.2     0.1     0.0     0.0     0.0     0.0     0.1     0.1
   15 164    88    0.10    0.16    0.31    0.20    87.4   0.027   0.087   0.175   0.353     2.2     1.2     8.6     0.0     808    0.00    0.81    0.00    2.71     0.0     0.0     0.0     0.0     0.0     0.0     0.0     0.0     0.0    439.     54.     26.     28.     30.     42.     39.     81.     70.     0.4     0.1     0.0     0.0     0.0     0.0     0.0     0.1     0.1     0.0     0.0     0.0     0.0     0.0     0.0     0.0     0.0     0.0     2.1     0.2     0.1     0.0     0.0     0.0     0.0     0.1     0.1
   15 165    89    0.10    0.17    0.31    0.20    88.1   0.027   0.088   0.175   0.354     1.3     0.7     4.9     0.0     696    0.00    0.70    0.00    1.08     0.0     0.0     0.0     0.0     0.0     0.0     0.0     0.0     0.0    311.     58.     27.     28.     31.     44.     41.     84.     72.     0.3     0.1     0.0     0.0     0.0     0.0     0.0     0.1     0.1     0.0     0.0     0.0     0.0     0.0     0.0     0.0     0.0     0.0     0.5     0.2     0.1     0.0     0.0     0.0     0.0     0.1     0.1
   15 166    90    0.10    0.17    0.32    0.20    88.7   0.027   0.089   0.175   0.355     0.9     0.5     3.3     0.0     617    0.00    0.62    0.00    0.65     0.0     0.0     0.0     0.0     0.0     0.0     0.0     0.0     0.0    216.     44.     29.     31.     33.     48.     45.     92.     78.     0.2     0.0     0.0     0.0     0.0     0.0     0.0     0.1     0.1     0.0     0.0     0.0     0.0     0.0     0.0     0.0     0.0     0.0     0.2     0.0     0.1     0.0     0.0     0.1     0.0     0.1     0.1
   15 167    91    0.10    0.17    0.32    0.20    89.2   0.027   0.089   0.175   0.356     0.6     0.3     2.1     0.0     533    0.00    0.53    0.00    0.48     0.0     0.0     0.0     0.0     0.0     0.0     0.0     0.0     0.0    136.     41.     26.     30.     32.     48.     46.     94.     80.     0.1     0.0     0.0     0.0     0.0     0.0     0.0     0.1     0.1     0.0     0.0     0.0     0.0     0.0     0.0     0.0     0.0     0.0     0.1     0.0     0.0     0.0     0.0     0.1     0.0     0.1     0.1
   15 168    92    0.10    0.17    0.32    0.20    89.8   0.027   0.090   0.175   0.356     1.2     0.7     4.3     0.0     591    0.00    0.59    0.00    0.92     0.0     0.0     0.0     0.0     0.0     0.0     0.0     0.0     0.0    169.     66.     34.     30.     30.     46.     45.     92.     79.     0.2     0.1     0.0     0.0     0.0     0.0     0.0     0.1     0.1     0.0     0.0     0.0     0.0     0.0     0.0     0.0     0.0     0.0     0.4     0.1     0.1     0.0     0.0     0.1     0.0     0.1     0.1
   15 169    93    0.10    0.17    0.33    0.20    90.3   0.027   0.090   0.175   0.358     1.3     0.8     4.4     0.0     536    0.00    0.54    0.00    1.11     0.0     0.0     0.0     0.0     0.0     0.0     0.0     0.0     0.0    119.     73.     40.     31.     27.     43.     42.     86.     74.     0.1     0.1     0.0     0.0     0.0     0.0     0.0     0.1     0.1     0.0     0.0     0.0     0.0     0.0     0.0     0.0     0.0     0.0     0.5     0.2     0.1     0.0     0.0     0.0     0.0     0.1     0.1
   15 170    94    0.10    0.17    0.33    0.23    90.8   0.032   0.091   0.194   0.364     0.5     0.5     1.7    24.4     424    4.75    0.42   19.69    6.03     0.0    24.4     0.0     0.0     0.0     0.0     0.0     0.0     0.0     52.     56.     34.     31.     24.     39.     39.     80.     70.     0.1     4.8     0.0     0.0     0.0     0.0     0.0     0.1     0.1     0.0    19.7     0.0     0.0     0.0     0.0     0.0     0.0     0.0     0.0     5.6     0.1     0.0     0.0     0.0     0.0     0.1     0.1
   15 171    95    0.10    0.17    0.33    0.23    91.2   0.033   0.091   0.199   0.367     1.1     1.5     3.1     6.0     418    1.08    0.42    4.97    3.15     0.0     6.0     0.0     0.0     0.0     0.0     0.0     0.0     0.0     62.     59.     37.     29.     22.     35.     35.     74.     65.     0.1     1.1     0.0     0.0     0.0     0.0     0.0     0.1     0.1     0.0     5.0     0.0     0.0     0.0     0.0     0.0     0.0     0.0     0.1     2.6     0.1     0.0     0.0     0.0     0.0     0.1     0.1
   15 172    96    0.10    0.17    0.34    0.23    91.6   0.033   0.092   0.200   0.368     1.4     2.2     3.5     1.1     401    0.19    0.40    0.91    1.34     0.0     1.1     0.0     0.0     0.0     0.0     0.0     0.0     0.0     56.     60.     36.     29.     21.     33.     34.     71.     63.     0.1     0.2     0.0     0.0     0.0     0.0     0.0     0.1     0.1     0.0     0.9     0.0     0.0     0.0     0.0     0.0     0.0     0.0     0.2     0.8     0.1     0.0     0.0     0.0     0.0     0.1     0.1
   15 173    97    0.11    0.17    0.34    0.23    92.0   0.033   0.092   0.200   0.369     1.3     2.4     3.2     0.0     386    0.00    0.39    0.00    0.73     0.0     0.0     0.0     0.0     0.0     0.0     0.0     0.0     0.0     48.     59.     36.     29.     21.     32.     33.     69.     61.     0.0     0.1     0.0     0.0     0.0     0.0     0.0     0.1     0.1     0.0     0.0     0.0     0.0     0.0     0.0     0.0     0.0     0.0     0.2     0.2     0.1     0.0     0.0     0.0     0.0     0.1     0.1
   15 174    98    0.11    0.18    0.34    0.23    92.3   0.033   0.092   0.200   0.369     0.5     1.0     1.3     0.0     361    0.00    0.36    0.00    0.45     0.0     0.0     0.0     0.0     0.0     0.0     0.0     0.0     0.0     29.     53.     33.     30.     21.     32.     33.     69.     61.     0.0     0.1     0.0     0.0     0.0     0.0     0.0     0.1     0.1     0.0     0.0     0.0     0.0     0.0     0.0     0.0     0.0     0.0     0.0     0.1     0.1     0.0     0.0     0.0     0.0     0.1     0.1
   15 175    99    0.11    0.18    0.34    0.23    92.7   0.033   0.093   0.200   0.370     0.7     1.4     1.6     0.0     364    0.00    0.36    0.00    0.46     0.0     0.0     0.0     0.0     0.0     0.0     0.0     0.0     0.0     34.     54.     33.     30.     21.     31.     33.     68.     60.     0.0     0.1     0.0     0.0     0.0     0.0     0.0     0.1     0.1     0.0     0.0     0.0     0.0     0.0     0.0     0.0     0.0     0.0     0.0     0.1     0.1     0.0     0.0     0.0     0.0     0.1     0.1
   15 176   100    0.11    0.18    0.34    0.23    93.1   0.033   0.093   0.200   0.370     1.3     2.6     2.7     0.0     391    0.00    0.39    0.00    0.74     0.0     0.0     0.0     0.0     0.0     0.0     0.0     0.0     0.0     46.     62.     39.     31.     21.     31.     33.     68.     60.     0.0     0.1     0.0     0.0     0.0     0.0     0.0     0.1     0.1     0.0     0.0     0.0     0.0     0.0     0.0     0.0     0.0     0.0     0.2     0.2     0.1     0.0     0.0     0.0     0.0     0.1     0.1
   15 177   101    0.11    0.18    0.35    0.23    93.5   0.033   0.093   0.200   0.371     1.2     2.4     2.5     0.0     398    0.00    0.40    0.00    0.76     0.0     0.0     0.0     0.0     0.0     0.0     0.0     0.0     0.0     45.     63.     40.     32.     22.     32.     34.     70.     61.     0.0     0.1     0.0     0.0     0.0     0.0     0.0     0.1     0.1     0.0     0.0     0.0     0.0     0.0     0.0     0.0     0.0     0.0     0.2     0.2     0.1     0.0     0.0     0.0     0.0     0.1     0.1
   15 178   102    0.11    0.18    0.35    0.23    93.9   0.033   0.094   0.200   0.372     1.1     2.3     2.3     0.0     412    0.00    0.41    0.00    0.79     0.0     0.0     0.0     0.0     0.0     0.0     0.0     0.0     0.0     45.     66.     42.     34.     23.     33.     35.     72.     63.     0.0     0.1     0.0     0.0     0.0     0.0     0.0     0.1     0.1     0.0     0.0     0.0     0.0     0.0     0.0     0.0     0.0     0.0     0.2     0.2     0.1     0.0     0.0     0.0     0.0     0.1     0.1
   15 179   103    0.11    0.19    0.35    0.23    94.3   0.033   0.094   0.200   0.373     1.0     2.1     2.0     0.0     420    0.00    0.42    0.00    0.80     0.0     0.0     0.0     0.0     0.0     0.0     0.0     0.0     0.0     43.     67.     44.     36.     24.     33.     36.     74.     64.     0.0     0.1     0.0     0.0     0.0     0.0     0.0     0.1     0.1     0.0     0.0     0.0     0.0     0.0     0.0     0.0     0.0     0.0     0.2     0.2     0.1     0.0     0.0     0.0     0.0     0.1     0.1
   15 180   104    0.11    0.19    0.35    0.23    94.8   0.033   0.095   0.200   0.374     1.0     1.9     1.9     0.0     442    0.00    0.44    0.00    0.85     0.0     0.0     0.0     0.0     0.0     0.0     0.0     0.0     0.0     41.     71.     47.     39.     26.     35.     38.     78.     68.     0.0     0.1     0.0     0.0     0.0     0.0     0.0     0.1     0.1     0.0     0.0     0.0     0.0     0.0     0.0     0.0     0.0     0.0     0.2     0.2     0.1     0.1     0.0     0.0     0.0     0.1     0.1
   15 181   105    0.11    0.19    0.35    0.23    95.2   0.033   0.095   0.200   0.375     0.9     1.7     1.8     0.0     463    0.00    0.46    0.00    0.88     0.0     0.0     0.0     0.0     0.0     0.0     0.0     0.0     0.0     36.     74.     51.     42.     28.     37.     41.     83.     72.     0.0     0.1     0.1     0.0     0.0     0.0     0.0     0.1     0.1     0.0     0.0     0.0     0.0     0.0     0.0     0.0     0.0     0.0     0.2     0.3     0.1     0.1     0.0     0.0     0.0     0.1     0.1
   15 182   106    0.11    0.19    0.36    0.23    95.7   0.033   0.096   0.200   0.375     0.8     1.5     1.6     0.0     497    0.00    0.50    0.00    0.94     0.0     0.0     0.0     0.0     0.0     0.0     0.0     0.0     0.0     33.     78.     56.     47.     30.     40.     45.     91.     77.     0.0     0.1     0.1     0.0     0.0     0.0     0.0     0.1     0.1     0.0     0.0     0.0     0.0     0.0     0.0     0.0     0.0     0.0     0.2     0.3     0.1     0.1     0.0     0.0     0.0     0.1     0.1
   15 183   107    0.12    0.19    0.36    0.23    96.2   0.033   0.096   0.200   0.376     0.8     1.3     1.5     0.0     516    0.00    0.52    0.00    0.97     0.0     0.0     0.0     0.0     0.0     0.0     0.0     0.0     0.0     30.     77.     59.     50.     32.     42.     48.     97.     82.     0.0     0.1     0.1     0.1     0.0     0.0     0.0     0.1     0.1     0.0     0.0     0.0     0.0     0.0     0.0     0.0     0.0     0.0     0.2     0.3     0.1     0.1     0.0     0.0     0.1     0.1     0.1
   15 184   108    0.12    0.19    0.37    0.23   102.9   0.033   0.103   0.200   0.412     2.0     1.2     8.8     0.0    6643    0.00    6.64    0.00   35.58     0.0     0.0     0.0     0.0     0.0     0.0     0.0     0.0     0.0   6142.     72.     60.     54.     33.     43.     51.    102.     86.     6.1     0.1     0.1     0.1     0.0     0.0     0.1     0.1     0.1     0.0     0.0     0.0     0.0     0.0     0.0     0.0     0.0     0.0    34.8     0.3     0.1     0.1     0.1     0.0     0.1     0.1     0.1
   15 185   109    0.12    0.19    0.38    0.23   108.6   0.033   0.109   0.200   0.443     2.8     1.0    13.6     0.0    5696    0.00    5.70    0.00   30.70     0.0     0.0     0.0     0.0     0.0     0.0     0.0     0.0     0.0   5174.     69.     60.     57.     35.     45.     54.    110.     92.     5.2     0.1     0.1     0.1     0.0     0.0     0.1     0.1     0.1     0.0     0.0     0.0     0.0     0.0     0.0     0.0     0.0     0.0    29.8     0.3     0.2     0.1     0.1     0.1     0.1     0.1     0.1
   15 186   110    0.12    0.20    0.39    0.23   111.9   0.033   0.112   0.200   0.460     2.9     0.9    14.5     0.0    3312    0.00    3.31    0.00   17.12     0.0     0.0     0.0     0.0     0.0     0.0     0.0     0.0     0.0   2770.     66.     59.     59.     37.     47.     58.    118.     98.     2.8     0.1     0.1     0.1     0.0     0.0     0.1     0.1     0.1     0.0     0.0     0.0     0.0     0.0     0.0     0.0     0.0     0.0    16.2     0.3     0.2     0.1     0.1     0.1     0.1     0.1     0.1
   15 187   111    0.13    0.20    0.41    0.23   112.5   0.033   0.113   0.200   0.461     2.4     0.7    11.7     0.0     631    0.00    0.63    0.00    1.35     0.0     0.0     0.0     0.0     0.0     0.0     0.0     0.0     0.0     79.     61.     56.     59.     38.     48.     62.    124.    103.     0.1     0.1     0.1     0.1     0.0     0.0     0.1     0.1     0.1     0.0     0.0     0.0     0.0     0.0     0.0     0.0     0.0     0.0     0.5     0.2     0.1     0.1     0.1     0.1     0.1     0.1     0.1
   15 188   112    0.13    0.20    0.42    0.23   113.2   0.033   0.113   0.200   0.463     2.0     0.6     9.2     0.0     654    0.00    0.65    0.00    1.50     0.0     0.0     0.0     0.0     0.0     0.0     0.0     0.0     0.0    114.     53.     51.     54.     37.     47.     63.    127.    106.     0.1     0.1     0.1     0.1     0.0     0.0     0.1     0.1     0.1     0.0     0.0     0.0     0.0     0.0     0.0     0.0     0.0     0.0     0.7     0.2     0.1     0.1     0.1     0.1     0.1     0.1     0.1
   15 189   113    0.13    0.20    0.42    0.23   113.9   0.033   0.114   0.200   0.464     1.5     0.5     6.7     0.0     722    0.00    0.72    0.00    1.64     0.0     0.0     0.0     0.0     0.0     0.0     0.0     0.0     0.0    187.     47.     48.     50.     37.     47.     65.    132.    109.     0.2     0.0     0.0     0.1     0.0     0.0     0.1     0.1     0.1     0.0     0.0     0.0     0.0     0.0     0.0     0.0     0.0     0.0     0.8     0.2     0.1     0.1     0.1     0.1     0.1     0.1     0.1
   15 190   114    0.13    0.20    0.43    0.23   114.5   0.033   0.115   0.200   0.466     1.3     0.4     5.6     0.0     606    0.00    0.61    0.00    1.21     0.0     0.0     0.0     0.0     0.0     0.0     0.0     0.0     0.0    119.     40.     40.     42.     33.     42.     61.    125.    105.     0.1     0.0     0.0     0.0     0.0     0.0     0.1     0.1     0.1     0.0     0.0     0.0     0.0     0.0     0.0     0.0     0.0     0.0     0.5     0.2     0.1     0.1     0.1     0.0     0.1     0.1     0.1
   15 191   115    0.13    0.20    0.43    0.23   115.0   0.033   0.115   0.200   0.466     1.1     0.4     4.8     0.0     495    0.00    0.49    0.00    0.92     0.0     0.0     0.0     0.0     0.0     0.0     0.0     0.0     0.0     67.     35.     32.     34.     28.     36.     54.    113.     97.     0.1     0.0     0.0     0.0     0.0     0.0     0.1     0.1     0.1     0.0     0.0     0.0     0.0     0.0     0.0     0.0     0.0     0.0     0.3     0.1     0.1     0.1     0.0     0.0     0.1     0.1     0.1
   15 192   116    0.13    0.20    0.44    0.23   115.4   0.033   0.115   0.200   0.467     1.1     0.3     4.4     0.0     405    0.00    0.41    0.00    0.70     0.0     0.0     0.0     0.0     0.0     0.0     0.0     0.0     0.0     29.     30.     26.     28.     24.     31.     47.    101.     88.     0.0     0.0     0.0     0.0     0.0     0.0     0.0     0.1     0.1     0.0     0.0     0.0     0.0     0.0     0.0     0.0     0.0     0.0     0.2     0.1     0.1     0.0     0.0     0.0     0.1     0.1     0.1
   15 193   117    0.13    0.20    0.44    0.23   115.8   0.033   0.116   0.200   0.468     1.0     0.3     3.6     0.0     370    0.00    0.37    0.00    0.60     0.0     0.0     0.0     0.0     0.0     0.0     0.0     0.0     0.0     16.     28.     24.     26.     22.     29.     44.     96.     84.     0.0     0.0     0.0     0.0     0.0     0.0     0.0     0.1     0.1     0.0     0.0     0.0     0.0     0.0     0.0     0.0     0.0     0.0     0.1     0.1     0.1     0.0     0.0     0.0     0.0     0.1     0.1
   15 194   118    0.13    0.20    0.44    0.23   116.1   0.033   0.116   0.200   0.468     0.8     0.2     3.0     0.0     341    0.00    0.34    0.00    0.53     0.0     0.0     0.0     0.0     0.0     0.0     0.0     0.0     0.0     10.     25.     22.     23.     21.     27.     41.     92.     80.     0.0     0.0     0.0     0.0     0.0     0.0     0.0     0.1     0.1     0.0     0.0     0.0     0.0     0.0     0.0     0.0     0.0     0.0     0.1     0.1     0.1     0.0     0.0     0.0     0.0     0.1     0.1
   15 195   119    0.14    0.20    0.45    0.23   116.5   0.033   0.116   0.200   0.469     0.7     0.2     2.5     0.0     337    0.00    0.34    0.00    0.51     0.0     0.0     0.0     0.0     0.0     0.0     0.0     0.0     0.0      8.     24.     22.     23.     21.     27.     41.     92.     80.     0.0     0.0     0.0     0.0     0.0     0.0     0.0     0.1     0.1     0.0     0.0     0.0     0.0     0.0     0.0     0.0     0.0     0.0     0.0     0.1     0.1     0.0     0.0     0.0     0.0     0.1     0.1
   15 196   120    0.14    0.20    0.45    0.23   116.8   0.033   0.117   0.200   0.469     0.7     0.2     2.1     0.0     354    0.00    0.35    0.00    0.53     0.0     0.0     0.0     0.0     0.0     0.0     0.0     0.0     0.0      6.     25.     23.     25.     22.     28.     43.     98.     84.     0.0     0.0     0.0     0.0     0.0     0.0     0.0     0.1     0.1     0.0     0.0     0.0     0.0     0.0     0.0     0.0     0.0     0.0     0.0     0.1     0.1     0.0     0.0     0.0     0.0     0.1     0.1
   15 197   121    0.14    0.20    0.45    0.23   117.2   0.033   0.117   0.200   0.470     0.6     0.1     1.8     0.0     376    0.00    0.38    0.00    0.57     0.0     0.0     0.0     0.0     0.0     0.0     0.0     0.0     0.0      6.     26.     25.     26.     24.     30.     45.    104.     89.     0.0     0.0     0.0     0.0     0.0     0.0     0.0     0.1     0.1     0.0     0.0     0.0     0.0     0.0     0.0     0.0     0.0     0.0     0.0     0.1     0.1     0.0     0.0     0.0     0.0     0.1     0.1
   15 198   122    0.14    0.20    0.45    0.23   117.6   0.033   0.118   0.200   0.470     0.6     0.1     1.6     0.0     386    0.00    0.39    0.00    0.58     0.0     0.0     0.0     0.0     0.0     0.0     0.0     0.0     0.0      6.     26.     25.     27.     25.     31.     46.    109.     92.     0.0     0.0     0.0     0.0     0.0     0.0     0.0     0.1     0.1     0.0     0.0     0.0     0.0     0.0     0.0     0.0     0.0     0.0     0.0     0.1     0.1     0.0     0.0     0.0     0.1     0.1     0.1
   15 199   123    0.14    0.20    0.45    0.23   118.0   0.033   0.118   0.200   0.471     0.5     0.1     1.4     0.0     398    0.00    0.40    0.00    0.59     0.0     0.0     0.0     0.0     0.0     0.0     0.0     0.0     0.0      5.     26.     26.     27.     25.     32.     46.    114.     96.     0.0     0.0     0.0     0.0     0.0     0.0     0.0     0.1     0.1     0.0     0.0     0.0     0.0     0.0     0.0     0.0     0.0     0.0     0.0     0.1     0.1     0.0     0.0     0.0     0.1     0.1     0.1
   15 200   124    0.14    0.20    0.45    0.23   118.4   0.033   0.118   0.200   0.472     0.5     0.1     1.2     0.0     409    0.00    0.41    0.00    0.61     0.0     0.0     0.0     0.0     0.0     0.0     0.0     0.0     0.0      5.     25.     27.     28.     26.     33.     46.    119.    100.     0.0     0.0     0.0     0.0     0.0     0.0     0.0     0.1     0.1     0.0     0.0     0.0     0.0     0.0     0.0     0.0     0.0     0.0     0.0     0.1     0.1     0.0     0.0     0.0     0.1     0.1     0.1
   15 201   125    0.14    0.20    0.46    0.23   118.8   0.033   0.119   0.200   0.472     0.5     0.1     1.0     0.0     411    0.00    0.41    0.00    0.61     0.0     0.0     0.0     0.0     0.0     0.0     0.0     0.0     0.0      6.     24.     26.     28.     26.     33.     45.    121.    102.     0.0     0.0     0.0     0.0     0.0     0.0     0.0     0.1     0.1     0.0     0.0     0.0     0.0     0.0     0.0     0.0     0.0     0.0     0.0     0.1     0.1     0.0     0.0     0.0     0.1     0.1     0.1
   15 202   126    0.14    0.20    0.46    0.23   119.2   0.033   0.119   0.200   0.473     0.4     0.1     0.9     0.0     413    0.00    0.41    0.00    0.61     0.0     0.0     0.0     0.0     0.0     0.0     0.0     0.0     0.0      6.     23.     26.     27.     26.     33.     44.    123.    104.     0.0     0.0     0.0     0.0     0.0     0.0     0.0     0.1     0.1     0.0     0.0     0.0     0.0     0.0     0.0     0.0     0.0     0.0     0.0     0.1     0.1     0.0     0.0     0.0     0.1     0.1     0.1
   15 203   127    0.14    0.20    0.46    0.23   119.6   0.033   0.120   0.200   0.474     0.4     0.1     0.9     0.0     415    0.00    0.42    0.00    0.61     0.0     0.0     0.0     0.0     0.0     0.0     0.0     0.0     0.0      6.     22.     26.     27.     26.     33.     44.    126.    106.     0.0     0.0     0.0     0.0     0.0     0.0     0.0     0.1     0.1     0.0     0.0     0.0     0.0     0.0     0.0     0.0     0.0     0.0     0.0     0.1     0.1     0.0     0.0     0.0     0.0     0.1     0.1
   15 204   128    0.14    0.20    0.46    0.23   120.0   0.033   0.120   0.200   0.474     0.4     0.0     0.8     0.0     411    0.00    0.41    0.00    0.59     0.0     0.0     0.0     0.0     0.0     0.0     0.0     0.0     0.0      5.     21.     25.     27.     26.     33.     42.    126.    106.     0.0     0.0     0.0     0.0     0.0     0.0     0.0     0.1     0.1     0.0     0.0     0.0     0.0     0.0     0.0     0.0     0.0     0.0     0.0     0.1     0.1     0.0     0.0     0.0     0.0     0.1     0.1
   15 205   129    0.14    0.20    0.46    0.23   120.4   0.033   0.120   0.200   0.475     0.4     0.0     0.7     0.0     404    0.00    0.40    0.00    0.58     0.0     0.0     0.0     0.0     0.0     0.0     0.0     0.0     0.0      6.     19.     24.     26.     25.     32.     41.    126.    106.     0.0     0.0     0.0     0.0     0.0     0.0     0.0     0.1     0.1     0.0     0.0     0.0     0.0     0.0     0.0     0.0     0.0     0.0     0.0     0.1     0.1     0.0     0.0     0.0     0.0     0.1     0.1
   15 206   130    0.14    0.20    0.46    0.23   120.8   0.033   0.121   0.200   0.475     0.4     0.0     0.7     0.0     401    0.00    0.40    0.00    0.58     0.0     0.0     0.0     0.0     0.0     0.0     0.0     0.0     0.0      7.     18.     23.     25.     24.     31.     40.    125.    106.     0.0     0.0     0.0     0.0     0.0     0.0     0.0     0.1     0.1     0.0     0.0     0.0     0.0     0.0     0.0     0.0     0.0     0.0     0.0     0.1     0.1     0.0     0.0     0.0     0.0     0.1     0.1
   15 207   131    0.14    0.20    0.46    0.23   121.2   0.033   0.121   0.200   0.476     0.4     0.0     0.7     0.0     380    0.00    0.38    0.00    0.54     0.0     0.0     0.0     0.0     0.0     0.0     0.0     0.0     0.0      7.     16.     21.     23.     23.     29.     37.    120.    103.     0.0     0.0     0.0     0.0     0.0     0.0     0.0     0.1     0.1     0.0     0.0     0.0     0.0     0.0     0.0     0.0     0.0     0.0     0.0     0.1     0.1     0.0     0.0     0.0     0.0     0.1     0.1
   15 208   132    0.14    0.20    0.46    0.23   121.6   0.033   0.122   0.200   0.476     0.4     0.0     0.6     0.0     346    0.00    0.35    0.00    0.49     0.0     0.0     0.0     0.0     0.0     0.0     0.0     0.0     0.0      7.     14.     19.     21.     20.     26.     33.    111.     96.     0.0     0.0     0.0     0.0     0.0     0.0     0.0     0.1     0.1     0.0     0.0     0.0     0.0     0.0     0.0     0.0     0.0     0.0     0.0     0.1     0.1     0.0     0.0     0.0     0.0     0.1     0.1
   15 209   133    0.14    0.20    0.46    0.23   121.9   0.033   0.122   0.200   0.477     0.3     0.0     0.5     0.0     323    0.00    0.32    0.00    0.45     0.0     0.0     0.0     0.0     0.0     0.0     0.0     0.0     0.0      8.     12.     17.     19.     18.     24.     30.    104.     91.     0.0     0.0     0.0     0.0     0.0     0.0     0.0     0.1     0.1     0.0     0.0     0.0     0.0     0.0     0.0     0.0     0.0     0.0     0.0     0.1     0.1     0.0     0.0     0.0     0.0     0.1     0.1
   15 210   134    0.14    0.20    0.46    0.23   122.2   0.033   0.122   0.200   0.477     0.3     0.0     0.6     0.0     313    0.00    0.31    0.00    0.45     0.0     0.0     0.0     0.0     0.0     0.0     0.0     0.0     0.0     11.     11.     16.     18.     18.     23.     29.    100.     88.     0.0     0.0     0.0     0.0     0.0     0.0     0.0     0.1     0.1     0.0     0.0     0.0     0.0     0.0     0.0     0.0     0.0     0.0     0.1     0.1     0.0     0.0     0.0     0.0     0.0     0.1     0.1
   15 211   135    0.14    0.20    0.46    0.23   122.5   0.033   0.122   0.200   0.478     0.3     0.0     0.6     0.0     288    0.00    0.29    0.00    0.41     0.0     0.0     0.0     0.0     0.0     0.0     0.0     0.0     0.0     10.     10.     14.     16.     16.     21.     26.     93.     82.     0.0     0.0     0.0     0.0     0.0     0.0     0.0     0.1     0.1     0.0     0.0     0.0     0.0     0.0     0.0     0.0     0.0     0.0     0.0     0.0     0.0     0.0     0.0     0.0     0.0     0.1     0.1
   15 212   136    0.14    0.20    0.46    0.23   122.8   0.033   0.123   0.200   0.478     0.4     0.0     0.6     0.0     272    0.00    0.27    0.00    0.38     0.0     0.0     0.0     0.0     0.0     0.0     0.0     0.0     0.0      7.      9.     13.     15.     15.     20.     25.     89.     79.     0.0     0.0     0.0     0.0     0.0     0.0     0.0     0.1     0.1     0.0     0.0     0.0     0.0     0.0     0.0     0.0     0.0     0.0     0.0     0.0     0.0     0.0     0.0     0.0     0.0     0.1     0.1
   15 213   137    0.14    0.20    0.46    0.23   123.0   0.033   0.123   0.200   0.478     0.4     0.0     0.6     0.0     270    0.00    0.27    0.00    0.38     0.0     0.0     0.0     0.0     0.0     0.0     0.0     0.0     0.0      6.      9.     13.     15.     15.     20.     25.     89.     79.     0.0     0.0     0.0     0.0     0.0     0.0     0.0     0.1     0.1     0.0     0.0     0.0     0.0     0.0     0.0     0.0     0.0     0.0     0.0     0.0     0.0     0.0     0.0     0.0     0.0     0.1     0.1
   15 214   138    0.14    0.20    0.46    0.23   123.3   0.033   0.123   0.200   0.479     0.4     0.0     0.5     0.0     265    0.00    0.27    0.00    0.37     0.0     0.0     0.0     0.0     0.0     0.0     0.0     0.0     0.0      6.      9.     13.     15.     15.     19.     24.     87.     77.     0.0     0.0     0.0     0.0     0.0     0.0     0.0     0.1     0.1     0.0     0.0     0.0     0.0     0.0     0.0     0.0     0.0     0.0     0.0     0.0     0.0     0.0     0.0     0.0     0.0     0.1     0.1
   15 215   139    0.14    0.20    0.46    0.23   123.6   0.033   0.124   0.200   0.479     0.4     0.0     0.5     0.0     268    0.00    0.27    0.00    0.38     0.0     0.0     0.0     0.0     0.0     0.0     0.0     0.0     0.0      7.      9.     13.     15.     15.     19.     24.     88.     78.     0.0     0.0     0.0     0.0     0.0     0.0     0.0     0.1     0.1     0.0     0.0     0.0     0.0     0.0     0.0     0.0     0.0     0.0     0.0     0.0     0.0     0.0     0.0     0.0     0.0     0.1     0.1
   15 216   140    0.14    0.20    0.46    0.23   123.8   0.033   0.124   0.200   0.480     0.4     0.0     0.5     0.0     280    0.00    0.28    0.00    0.40     0.0     0.0     0.0     0.0     0.0     0.0     0.0     0.0     0.0      7.     10.     14.     16.     16.     20.     25.     92.     81.     0.0     0.0     0.0     0.0     0.0     0.0     0.0     0.1     0.1     0.0     0.0     0.0     0.0     0.0     0.0     0.0     0.0     0.0     0.0     0.0     0.0     0.0     0.0     0.0     0.0     0.1     0.1
   15 217   141    0.14    0.20    0.47    0.23   124.1   0.033   0.124   0.200   0.480     0.4     0.0     0.5     0.0     302    0.00    0.30    0.00    0.44     0.0     0.0     0.0     0.0     0.0     0.0     0.0     0.0     0.0      8.     11.     15.     17.     17.     22.     27.     99.     86.     0.0     0.0     0.0     0.0     0.0     0.0     0.0     0.1     0.1     0.0     0.0     0.0     0.0     0.0     0.0     0.0     0.0     0.0     0.0     0.1     0.0     0.0     0.0     0.0     0.0     0.1     0.1
   15 218   142    0.14    0.20    0.47    0.23   124.5   0.033   0.124   0.200   0.480     0.4     0.0     0.5     0.0     319    0.00    0.32    0.00    0.46     0.0     0.0     0.0     0.0     0.0     0.0     0.0     0.0     0.0      8.     12.     16.     18.     18.     24.     28.    105.     90.     0.0     0.0     0.0     0.0     0.0     0.0     0.0     0.1     0.1     0.0     0.0     0.0     0.0     0.0     0.0     0.0     0.0     0.0     0.0     0.1     0.0     0.0     0.0     0.0     0.0     0.1     0.1
   15 219   143    0.15    0.20    0.47    0.23   124.8   0.033   0.125   0.200   0.481     0.4     0.0     0.5     0.0     341    0.00    0.34    0.00    0.50     0.0     0.0     0.0     0.0     0.0     0.0     0.0     0.0     0.0      9.     13.     17.     20.     19.     25.     30.    112.     95.     0.0     0.0     0.0     0.0     0.0     0.0     0.0     0.1     0.1     0.0     0.0     0.0     0.0     0.0     0.0     0.0     0.0     0.0     0.1     0.1     0.1     0.0     0.0     0.0     0.0     0.1     0.1
   15 220   144    0.15    0.20    0.47    0.23   125.2   0.033   0.125   0.200   0.481     0.3     0.0     0.5     0.0     360    0.00    0.36    0.00    0.51     0.0     0.0     0.0     0.0     0.0     0.0     0.0     0.0     0.0      6.     14.     18.     21.     21.     27.     32.    119.    101.     0.0     0.0     0.0     0.0     0.0     0.0     0.0     0.1     0.1     0.0     0.0     0.0     0.0     0.0     0.0     0.0     0.0     0.0     0.0     0.1     0.1     0.0     0.0     0.0     0.0     0.1     0.1
   15 221   145    0.15    0.20    0.47    0.23   125.5   0.033   0.126   0.200   0.482     0.3     0.0     0.5     0.0     381    0.00    0.38    0.00    0.54     0.0     0.0     0.0     0.0     0.0     0.0     0.0     0.0     0.0      8.     15.     19.     22.     22.     28.     34.    126.    106.     0.0     0.0     0.0     0.0     0.0     0.0     0.0     0.1     0.1     0.0     0.0     0.0     0.0     0.0     0.0     0.0     0.0     0.0     0.0     0.1     0.1     0.0     0.0     0.0     0.0     0.1     0.1

*DSSAT Cropping System Model Ver. 4.8.5.000 -release  OCT 24, 2025 14:14:59

*RUN   2        : 2                         CSCER048 TUDU1501    2
 MODEL          : CSCER048 - Wheat
 EXPERIMENT     : TUDU1501 WH
 DATA PATH      :
 TREATMENT  2   : 2                         CSCER048
  
!              |------------------------------ Cumulative -----------------------------|------------------------------ Daily ----------------------------------|
!               N2Oemit  N2emit  NOemit   Denit  Nitrif   N2O-denit+nit      N2      NO N2Oemit  N2emit  NOemit   Denit  Nitrif   N2O-denit+nit      N2      NO   Denitrification (g[N]/ha) by soil depth (cm):                           Nitrification (g[N]/ha) by soil depth (cm):                             N2O flux (g[N]/ha) by soil depth (cm):                                  N2 flux (g[N]/ha) by soil depth (cm):                                   NO flux (g[N]/ha) by soil depth (cm):
!                 kg/ha   kg/ha   kg/ha   kg/ha   kg/ha   kg/ha   kg/ha   kg/ha   kg/ha    g/ha    g/ha    g/ha    g/ha    g/ha    g/ha    g/ha    g/ha    g/ha     0-5    5-15   15-30   30-45   45-60   60-80  80-100 100-150 150-200     0-5    5-15   15-30   30-45   45-60   60-80  80-100 100-150 150-200     0-5    5-15   15-30   30-45   45-60   60-80  80-100 100-150 150-200     0-5    5-15   15-30   30-45   45-60   60-80  80-100 100-150 150-200     0-5    5-15   15-30   30-45   45-60   60-80  80-100 100-150 150-200
@YEAR DOY   DAS   N2OEC    N2EC    NOEC    NDNC    NITC   N2ODC   N2ONC   N2FLC   NOFLC  N2OGED   N2GED   NOGED    NDND   NITRD   N2ODD   N2OND   N2FLD   NOFLD   NDN1D   NDN2D   NDN3D   NDN4D   NDN5D   NDN6D   NDN7D   NDN8D   NDN9D   NIT1D   NIT2D   NIT3D   NIT4D   NIT5D   NIT6D   NIT7D   NIT8D   NIT9D   N2O1D   N2O2D   N2O3D   N2O4D   N2O5D   N2O6D   N2O7D   N2O8D   N2O9D   N2F1D   N2F2D   N2F3D   N2F4D   N2F5D   N2F6D   N2F7D   N2F8D   N2F9D   NOF1D   NOF2D   NOF3D   NOF4D   NOF5D   NOF6D   NOF7D   NOF8D   NOF9D   
   15 077     1    0.00    0.00    0.00    0.00     1.2   0.000   0.002   0.000   0.002     0.0     0.0     0.1     0.0    1177    0.00    1.18    0.00    1.94     0.0     0.0     0.0     0.0     0.0     0.0     0.0     0.0     0.0     74.    124.    146.    104.    103.    112.    111.    203.    200.     0.1     0.1     0.1     0.1     0.1     0.1     0.1     0.2     0.2     0.0     0.0     0.0     0.0     0.0     0.0     0.0     0.0     0.0     0.3     0.4     0.3     0.1     0.1     0.1     0.1     0.2     0.2
[...]
   15 184   108    0.02    0.04    0.04    0.04    32.2   0.001   0.033   0.040   0.057     0.4     0.3     0.8     0.0     593    0.00    0.59    0.00    1.09     0.0     0.0     0.0     0.0     0.0     0.0     0.0     0.0     0.0     39.     87.     65.     55.     51.     56.     51.    103.     87.     0.0     0.1     0.1     0.1     0.1     0.1     0.1     0.1     0.1     0.0     0.0     0.0     0.0     0.0     0.0     0.0     0.0     0.0     0.2     0.3     0.1     0.1     0.1     0.1     0.1     0.1     0.1
   15 185   109    0.02    0.04    0.04    0.04    32.9   0.001   0.033   0.040   0.059     0.4     0.3     0.8     0.0     626    0.00    0.63    0.00    1.13     0.0     0.0     0.0     0.0     0.0     0.0     0.0     0.0     0.0     36.     88.     69.     59.     55.     60.     55.    111.     93.     0.0     0.1     0.1     0.1     0.1     0.1     0.1     0.1     0.1     0.0     0.0     0.0     0.0     0.0     0.0     0.0     0.0     0.0     0.2     0.3     0.2     0.1     0.1     0.1     0.1     0.1     0.1
   15 186   110    0.02    0.04    0.04    0.04    33.5   0.001   0.034   0.040   0.060     0.4     0.2     0.9     0.0     660    0.00    0.66    0.00    1.18     0.0     0.0     0.0     0.0     0.0     0.0     0.0     0.0     0.0     34.     88.     72.     64.     59.     65.     59.    119.    100.     0.0     0.1     0.1     0.1     0.1     0.1     0.1     0.1     0.1     0.0     0.0     0.0     0.0     0.0     0.0     0.0     0.0     0.0     0.2     0.3     0.2     0.1     0.1     0.1     0.1     0.1     0.1
   15 187   111    0.02    0.04    0.04    0.04    34.2   0.001   0.035   0.040   0.061     0.4     0.2     0.9     0.0     684    0.00    0.68    0.00    1.20     0.0     0.0     0.0     0.0     0.0     0.0     0.0     0.0     0.0     31.     84.     74.     68.     63.     69.     63.    127.    106.     0.0     0.1     0.1     0.1     0.1     0.1     0.1     0.1     0.1     0.0     0.0     0.0     0.0     0.0     0.0     0.0     0.0     0.0     0.2     0.3     0.2     0.1     0.1     0.1     0.1     0.1     0.1
   15 188   112    0.02    0.04    0.04    0.04    34.9   0.001   0.035   0.040   0.062     0.4     0.2     0.9     0.0     688    0.00    0.69    0.00    1.19     0.0     0.0     0.0     0.0     0.0     0.0     0.0     0.0     0.0     33.     77.     71.     68.     64.     71.     64.    130.    109.     0.0     0.1     0.1     0.1     0.1     0.1     0.1     0.1     0.1     0.0     0.0     0.0     0.0     0.0     0.0     0.0     0.0     0.0     0.2     0.3     0.2     0.1     0.1     0.1     0.1     0.1     0.1
   15 189   113    0.02    0.04    0.04    0.04    35.6   0.001   0.036   0.040   0.063     0.4     0.1     0.8     0.0     706    0.00    0.71    0.00    1.19     0.0     0.0     0.0     0.0     0.0     0.0     0.0     0.0     0.0     43.     72.     69.     69.     66.     73.     67.    135.    113.     0.0     0.1     0.1     0.1     0.1     0.1     0.1     0.1     0.1     0.0     0.0     0.0     0.0     0.0     0.0     0.0     0.0     0.0     0.2     0.3     0.2     0.1     0.1     0.1     0.1     0.1     0.1
   15 190   114    0.02    0.04    0.05    0.04    36.3   0.001   0.037   0.040   0.064     0.3     0.1     0.6     0.0     647    0.00    0.65    0.00    0.96     0.0     0.0     0.0     0.0     0.0     0.0     0.0     0.0     0.0     41.     60.     59.     62.     60.     68.     62.    128.    108.     0.0     0.1     0.1     0.1     0.1     0.1     0.1     0.1     0.1     0.0     0.0     0.0     0.0     0.0     0.0     0.0     0.0     0.0     0.1     0.2     0.1     0.1     0.1     0.1     0.1     0.1     0.1
   15 191   115    0.02    0.04    0.05    0.04    36.8   0.001   0.037   0.040   0.065     0.4     0.1     0.8     0.0     579    0.00    0.58    0.00    0.97     0.0     0.0     0.0     0.0     0.0     0.0     0.0     0.0     0.0     46.     53.     48.     52.     52.     59.     55.    115.     99.     0.0     0.1     0.0     0.1     0.1     0.1     0.1     0.1     0.1     0.0     0.0     0.0     0.0     0.0     0.0     0.0     0.0     0.0     0.2     0.2     0.1     0.1     0.1     0.1     0.1     0.1     0.1
   15 192   116    0.02    0.04    0.05    0.04    37.3   0.001   0.038   0.040   0.066     0.4     0.1     0.8     0.0     512    0.00    0.51    0.00    0.86     0.0     0.0     0.0     0.0     0.0     0.0     0.0     0.0     0.0     43.     46.     40.     44.     45.     52.     49.    103.     90.     0.0     0.0     0.0     0.0     0.0     0.1     0.0     0.1     0.1     0.0     0.0     0.0     0.0     0.0     0.0     0.0     0.0     0.0     0.2     0.2     0.1     0.1     0.1     0.1     0.1     0.1     0.1
   15 193   117    0.02    0.04    0.05    0.04    37.8   0.001   0.038   0.040   0.067     0.4     0.1     0.8     0.0     483    0.00    0.48    0.00    0.82     0.0     0.0     0.0     0.0     0.0     0.0     0.0     0.0     0.0     41.     43.     36.     41.     42.     49.     46.     98.     86.     0.0     0.0     0.0     0.0     0.0     0.0     0.0     0.1     0.1     0.0     0.0     0.0     0.0     0.0     0.0     0.0     0.0     0.0     0.2     0.2     0.1     0.1     0.1     0.1     0.0     0.1     0.1
   15 194   118    0.02    0.04    0.05    0.04    38.3   0.001   0.039   0.040   0.068     0.4     0.1     0.9     0.0     453    0.00    0.45    0.00    0.77     0.0     0.0     0.0     0.0     0.0     0.0     0.0     0.0     0.0     38.     39.     33.     38.     39.     47.     44.     93.     82.     0.0     0.0     0.0     0.0     0.0     0.0     0.0     0.1     0.1     0.0     0.0     0.0     0.0     0.0     0.0     0.0     0.0     0.0     0.2     0.1     0.1     0.1     0.1     0.1     0.0     0.1     0.1
   15 195   119    0.02    0.04    0.05    0.04    38.7   0.001   0.039   0.040   0.068     0.4     0.1     0.8     0.0     452    0.00    0.45    0.00    0.77     0.0     0.0     0.0     0.0     0.0     0.0     0.0     0.0     0.0     38.     39.     33.     37.     38.     47.     44.     93.     82.     0.0     0.0     0.0     0.0     0.0     0.0     0.0     0.1     0.1     0.0     0.0     0.0     0.0     0.0     0.0     0.0     0.0     0.0     0.2     0.1     0.1     0.1     0.1     0.1     0.0     0.1     0.1
   15 196   120    0.03    0.04    0.05    0.04    39.2   0.001   0.040   0.040   0.069     0.4     0.1     0.9     0.0     484    0.00    0.48    0.00    0.84     0.0     0.0     0.0     0.0     0.0     0.0     0.0     0.0     0.0     41.     41.     35.     40.     41.     51.     48.    100.     87.     0.0     0.0     0.0     0.0     0.0     0.1     0.0     0.1     0.1     0.0     0.0     0.0     0.0     0.0     0.0     0.0     0.0     0.0     0.2     0.2     0.1     0.1     0.1     0.1     0.1     0.1     0.1
   15 197   121    0.03    0.04    0.05    0.04    39.7   0.001   0.040   0.040   0.070     0.5     0.0     0.9     0.0     515    0.00    0.52    0.00    0.90     0.0     0.0     0.0     0.0     0.0     0.0     0.0     0.0     0.0     40.     44.     38.     43.     44.     55.     52.    107.     92.     0.0     0.0     0.0     0.0     0.0     0.1     0.1     0.1     0.1     0.0     0.0     0.0     0.0     0.0     0.0     0.0     0.0     0.0     0.2     0.2     0.1     0.1     0.1     0.1     0.1     0.1     0.1
   15 198   122    0.03    0.04    0.05    0.04    40.3   0.001   0.041   0.040   0.071     0.5     0.0     0.9     0.0     528    0.00    0.53    0.00    0.91     0.0     0.0     0.0     0.0     0.0     0.0     0.0     0.0     0.0     36.     45.     39.     44.     45.     58.     54.    112.     96.     0.0     0.0     0.0     0.0     0.0     0.1     0.1     0.1     0.1     0.0     0.0     0.0     0.0     0.0     0.0     0.0     0.0     0.0     0.2     0.2     0.1     0.1     0.1     0.1     0.1     0.1     0.1
   15 199   123    0.03    0.04    0.05    0.04    40.8   0.001   0.041   0.040   0.072     0.5     0.0     0.9     0.0     543    0.00    0.54    0.00    0.93     0.0     0.0     0.0     0.0     0.0     0.0     0.0     0.0     0.0     33.     46.     40.     44.     46.     60.     57.    117.    100.     0.0     0.0     0.0     0.0     0.0     0.1     0.1     0.1     0.1     0.0     0.0     0.0     0.0     0.0     0.0     0.0     0.0     0.0     0.2     0.2     0.1     0.1     0.1     0.1     0.1     0.1     0.1
   15 200   124    0.03    0.04    0.05    0.04    41.4   0.001   0.042   0.040   0.073     0.5     0.0     0.9     0.0     556    0.00    0.56    0.00    0.94     0.0     0.0     0.0     0.0     0.0     0.0     0.0     0.0     0.0     33.     46.     41.     44.     46.     62.     59.    122.    103.     0.0     0.0     0.0     0.0     0.0     0.1     0.1     0.1     0.1     0.0     0.0     0.0     0.0     0.0     0.0     0.0     0.0     0.0     0.2     0.2     0.1     0.1     0.1     0.1     0.1     0.1     0.1
   15 201   125    0.03    0.04    0.05    0.04    41.9   0.001   0.042   0.040   0.074     0.4     0.0     0.9     0.0     557    0.00    0.56    0.00    0.94     0.0     0.0     0.0     0.0     0.0     0.0     0.0     0.0     0.0     33.     44.     40.     43.     45.     62.     59.    124.    106.     0.0     0.0     0.0     0.0     0.0     0.1     0.1     0.1     0.1     0.0     0.0     0.0     0.0     0.0     0.0     0.0     0.0     0.0     0.2     0.2     0.1     0.1     0.1     0.1     0.1     0.1     0.1
   15 202   126    0.03    0.04    0.06    0.04    42.5   0.001   0.043   0.040   0.075     0.5     0.0     0.9     0.0     553    0.00    0.55    0.00    0.92     0.0     0.0     0.0     0.0     0.0     0.0     0.0     0.0     0.0     30.     43.     40.     42.     44.     62.     59.    127.    107.     0.0     0.0     0.0     0.0     0.0     0.1     0.1     0.1     0.1     0.0     0.0     0.0     0.0     0.0     0.0     0.0     0.0     0.0     0.2     0.2     0.1     0.1     0.1     0.1     0.1     0.1     0.1
   15 203   127    0.03    0.04    0.06    0.04    43.0   0.001   0.043   0.040   0.076     0.5     0.0     0.9     0.0     551    0.00    0.55    0.00    0.91     0.0     0.0     0.0     0.0     0.0     0.0     0.0     0.0     0.0     27.     41.     39.     41.     43.     61.     60.    129.    109.     0.0     0.0     0.0     0.0     0.0     0.1     0.1     0.1     0.1     0.0     0.0     0.0     0.0     0.0     0.0     0.0     0.0     0.0     0.2     0.2     0.1     0.1     0.1     0.1     0.1     0.1     0.1
   15 204   128    0.03    0.04    0.06    0.04    43.6   0.001   0.044   0.040   0.077     0.5     0.0     0.8     0.0     539    0.00    0.54    0.00    0.88     0.0     0.0     0.0     0.0     0.0     0.0     0.0     0.0     0.0     24.     39.     38.     40.     41.     59.     59.    129.    110.     0.0     0.0     0.0     0.0     0.0     0.1     0.1     0.1     0.1     0.0     0.0     0.0     0.0     0.0     0.0     0.0     0.0     0.0     0.1     0.2     0.1     0.1     0.1     0.1     0.1     0.1     0.1
   15 205   129    0.03    0.04    0.06    0.04    44.1   0.001   0.044   0.040   0.077     0.4     0.0     0.8     0.0     529    0.00    0.53    0.00    0.87     0.0     0.0     0.0     0.0     0.0     0.0     0.0     0.0     0.0     29.     36.     36.     38.     39.     56.     57.    128.    109.     0.0     0.0     0.0     0.0     0.0     0.1     0.1     0.1     0.1     0.0     0.0     0.0     0.0     0.0     0.0     0.0     0.0     0.0     0.2     0.2     0.1     0.1     0.1     0.1     0.1     0.1     0.1
   15 206   130    0.03    0.04    0.06    0.04    44.6   0.001   0.045   0.040   0.078     0.4     0.0     0.8     0.0     516    0.00    0.52    0.00    0.84     0.0     0.0     0.0     0.0     0.0     0.0     0.0     0.0     0.0     26.     34.     35.     37.     38.     54.     55.    128.    109.     0.0     0.0     0.0     0.0     0.0     0.1     0.1     0.1     0.1     0.0     0.0     0.0     0.0     0.0     0.0     0.0     0.0     0.0     0.1     0.1     0.1     0.1     0.1     0.1     0.1     0.1     0.1
   15 207   131    0.03    0.04    0.06    0.04    45.1   0.001   0.045   0.040   0.079     0.4     0.0     0.8     0.0     482    0.00    0.48    0.00    0.78     0.0     0.0     0.0     0.0     0.0     0.0     0.0     0.0     0.0     23.     30.     32.     34.     34.     49.     51.    122.    105.     0.0     0.0     0.0     0.0     0.0     0.0     0.1     0.1     0.1     0.0     0.0     0.0     0.0     0.0     0.0     0.0     0.0     0.0     0.1     0.1     0.1     0.1     0.1     0.1     0.1     0.1     0.1
   15 208   132    0.03    0.04    0.06    0.04    45.5   0.001   0.046   0.040   0.080     0.4     0.0     0.8     0.0     435    0.00    0.43    0.00    0.70     0.0     0.0     0.0     0.0     0.0     0.0     0.0     0.0     0.0     23.     26.     28.     29.     30.     43.     46.    112.     98.     0.0     0.0     0.0     0.0     0.0     0.0     0.0     0.1     0.1     0.0     0.0     0.0     0.0     0.0     0.0     0.0     0.0     0.0     0.1     0.1     0.1     0.0     0.0     0.0     0.1     0.1     0.1
   15 209   133    0.03    0.04    0.06    0.04    45.9   0.001   0.046   0.040   0.080     0.4     0.0     0.7     0.0     403    0.00    0.40    0.00    0.63     0.0     0.0     0.0     0.0     0.0     0.0     0.0     0.0     0.0     25.     23.     25.     26.     27.     38.     41.    105.     92.     0.0     0.0     0.0     0.0     0.0     0.0     0.0     0.1     0.1     0.0     0.0     0.0     0.0     0.0     0.0     0.0     0.0     0.0     0.1     0.1     0.1     0.0     0.0     0.0     0.0     0.1     0.1
   15 210   134    0.03    0.04    0.06    0.04    46.3   0.001   0.047   0.040   0.081     0.4     0.0     0.7     0.0     386    0.00    0.39    0.00    0.62     0.0     0.0     0.0     0.0     0.0     0.0     0.0     0.0     0.0     27.     21.     24.     25.     25.     36.     39.    101.     89.     0.0     0.0     0.0     0.0     0.0     0.0     0.0     0.1     0.1     0.0     0.0     0.0     0.0     0.0     0.0     0.0     0.0     0.0     0.1     0.1     0.1     0.0     0.0     0.0     0.0     0.1     0.1
   15 211   135    0.03    0.04    0.06    0.04    46.7   0.001   0.047   0.040   0.082     0.4     0.0     0.7     0.0     356    0.00    0.36    0.00    0.57     0.0     0.0     0.0     0.0     0.0     0.0     0.0     0.0     0.0     26.     18.     21.     22.     23.     32.     35.     94.     84.     0.0     0.0     0.0     0.0     0.0     0.0     0.0     0.1     0.1     0.0     0.0     0.0     0.0     0.0     0.0     0.0     0.0     0.0     0.1     0.1     0.1     0.0     0.0     0.0     0.0     0.1     0.1
   15 212   136    0.03    0.04    0.06    0.04    47.0   0.001   0.047   0.040   0.082     0.4     0.0     0.7     0.0     336    0.00    0.34    0.00    0.55     0.0     0.0     0.0     0.0     0.0     0.0     0.0     0.0     0.0     25.     17.     20.     21.     22.     30.     33.     90.     80.     0.0     0.0     0.0     0.0     0.0     0.0     0.0     0.1     0.1     0.0     0.0     0.0     0.0     0.0     0.0     0.0     0.0     0.0     0.1     0.1     0.1     0.0     0.0     0.0     0.0     0.1     0.1
   15 213   137    0.03    0.04    0.06    0.04    47.3   0.001   0.048   0.040   0.083     0.4     0.0     0.7     0.0     333    0.00    0.33    0.00    0.54     0.0     0.0     0.0     0.0     0.0     0.0     0.0     0.0     0.0     22.     17.     20.     21.     21.     29.     32.     90.     80.     0.0     0.0     0.0     0.0     0.0     0.0     0.0     0.1     0.1     0.0     0.0     0.0     0.0     0.0     0.0     0.0     0.0     0.0     0.1     0.1     0.1     0.0     0.0     0.0     0.0     0.1     0.1
   15 214   138    0.03    0.04    0.06    0.04    47.7   0.001   0.048   0.040   0.083     0.4     0.0     0.7     0.0     321    0.00    0.32    0.00    0.52     0.0     0.0     0.0     0.0     0.0     0.0     0.0     0.0     0.0     20.     16.     19.     20.     21.     28.     31.     88.     78.     0.0     0.0     0.0     0.0     0.0     0.0     0.0     0.1     0.1     0.0     0.0     0.0     0.0     0.0     0.0     0.0     0.0     0.0     0.1     0.1     0.1     0.0     0.0     0.0     0.0     0.1     0.1
   15 215   139    0.03    0.04    0.07    0.04    48.0   0.001   0.048   0.040   0.084     0.4     0.0     0.7     0.0     322    0.00    0.32    0.00    0.52     0.0     0.0     0.0     0.0     0.0     0.0     0.0     0.0     0.0     18.     16.     19.     20.     21.     28.     31.     89.     79.     0.0     0.0     0.0     0.0     0.0     0.0     0.0     0.1     0.1     0.0     0.0     0.0     0.0     0.0     0.0     0.0     0.0     0.0     0.1     0.1     0.1     0.0     0.0     0.0     0.0     0.1     0.1
   15 216   140    0.03    0.04    0.07    0.04    48.3   0.001   0.049   0.040   0.084     0.4     0.0     0.7     0.0     335    0.00    0.33    0.00    0.54     0.0     0.0     0.0     0.0     0.0     0.0     0.0     0.0     0.0     18.     17.     21.     21.     22.     29.     32.     93.     82.     0.0     0.0     0.0     0.0     0.0     0.0     0.0     0.1     0.1     0.0     0.0     0.0     0.0     0.0     0.0     0.0     0.0     0.0     0.1     0.1     0.1     0.0     0.0     0.0     0.0     0.1     0.1
   15 217   141    0.03    0.04    0.07    0.04    48.7   0.001   0.049   0.040   0.085     0.4     0.0     0.7     0.0     358    0.00    0.36    0.00    0.57     0.0     0.0     0.0     0.0     0.0     0.0     0.0     0.0     0.0     18.     18.     22.     23.     24.     32.     34.    100.     87.     0.0     0.0     0.0     0.0     0.0     0.0     0.0     0.1     0.1     0.0     0.0     0.0     0.0     0.0     0.0     0.0     0.0     0.0     0.1     0.1     0.1     0.0     0.0     0.0     0.0     0.1     0.1
   15 218   142    0.03    0.04    0.07    0.04    49.0   0.001   0.049   0.040   0.085     0.4     0.0     0.7     0.0     376    0.00    0.38    0.00    0.60     0.0     0.0     0.0     0.0     0.0     0.0     0.0     0.0     0.0     18.     19.     24.     25.     25.     33.     35.    106.     91.     0.0     0.0     0.0     0.0     0.0     0.0     0.0     0.1     0.1     0.0     0.0     0.0     0.0     0.0     0.0     0.0     0.0     0.0     0.1     0.1     0.1     0.0     0.0     0.0     0.0     0.1     0.1
   15 219   143    0.04    0.04    0.07    0.04    49.4   0.001   0.050   0.040   0.086     0.4     0.0     0.7     0.0     400    0.00    0.40    0.00    0.64     0.0     0.0     0.0     0.0     0.0     0.0     0.0     0.0     0.0     18.     20.     26.     27.     27.     35.     37.    113.     97.     0.0     0.0     0.0     0.0     0.0     0.0     0.0     0.1     0.1     0.0     0.0     0.0     0.0     0.0     0.0     0.0     0.0     0.0     0.1     0.1     0.1     0.0     0.0     0.0     0.0     0.1     0.1
   15 220   144    0.04    0.04    0.07    0.04    49.9   0.001   0.050   0.040   0.087     0.4     0.0     0.7     0.0     421    0.00    0.42    0.00    0.67     0.0     0.0     0.0     0.0     0.0     0.0     0.0     0.0     0.0     17.     21.     27.     28.     29.     37.     39.    121.    102.     0.0     0.0     0.0     0.0     0.0     0.0     0.0     0.1     0.1     0.0     0.0     0.0     0.0     0.0     0.0     0.0     0.0     0.0     0.1     0.1     0.1     0.0     0.0     0.0     0.0     0.1     0.1
   15 221   145    0.04    0.04    0.07    0.04    50.3   0.001   0.051   0.040   0.087     0.4     0.0     0.7     0.0     451    0.00    0.45    0.00    0.73     0.0     0.0     0.0     0.0     0.0     0.0     0.0     0.0     0.0     26.     21.     29.     30.     30.     39.     41.    128.    108.     0.0     0.0     0.0     0.0     0.0     0.0     0.0     0.1     0.1     0.0     0.0     0.0     0.0     0.0     0.0     0.0     0.0     0.0     0.1     0.1     0.1     0.0     0.0     0.0     0.0     0.1     0.1
