$GROWTH ASPECTS SECONDARY OUTPUT FILE

*DSSAT Cropping System Model Ver. 4.8.5.000 -release  OCT 24, 2025 14:14:59

*RUN   1        : 1                         CSCER048 TUDU1501    1
 MODEL          : CSCER048 - Wheat
 EXPERIMENT     : TUDU1501 WH
 DATA PATH      :
 TREATMENT  1   : 1                         CSCER048
  
@YEAR DOY   DAS   DAP TMEAN  GSTD  RSTD LAIPD LAISD  LAID  CHTD SDWAD SNWLD SNWSD  H#AD  HWUD SHRTD  PTFD  RDPD  RL1D  RL2D  RL3D  RL4D  RL5D  RL6D  RL7D  RL8D  RL9D RL10D
   15  77     0     0   7.7     0  1.02     0  0.00     0     0 106.5     0     0     0     0  0.00  0.00 0.025  0.00  0.00  0.00  0.00  0.00  0.00  0.00  0.00  0.00  0.00
   15  78     1     1   6.3 2.650  1.02     0  0.00     0     0 106.5     0     0     0     0  0.00  0.00 0.025  0.00  0.00  0.00  0.00  0.00  0.00  0.00  0.00  0.00  0.00
   15  79     2     2   5.4 4.825  1.02     0  0.00     0     0 106.5     0     0     0     0  0.00  0.00 0.025  0.00  0.00  0.00  0.00  0.00  0.00  0.00  0.00  0.00  0.00
   15  80     3     3   5.3 5.988  1.02     0  0.00     0     0 106.5     0     0     0     0  0.00  0.00 0.025  0.00  0.00  0.00  0.00  0.00  0.00  0.00  0.00  0.00  0.00
   15  81     4     4   4.1 6.775  1.02     0  0.00     0     0 106.2     0     0     0     0  0.00  0.00 0.031  0.01  0.00  0.00  0.00  0.00  0.00  0.00  0.00  0.00  0.00
   15  82     5     5   2.8 7.213  1.02     0  0.00     0     0 106.0     0 .0000     0     0  0.00  0.00 0.035  0.01  0.00  0.00  0.00  0.00  0.00  0.00  0.00  0.00  0.00
   15  83     6     6   6.6 8.612  1.02     0  0.00     0     0 105.5     0 .0002     0     0  0.00  0.00 0.045  0.02  0.00  0.00  0.00  0.00  0.00  0.00  0.00  0.00  0.00
   15  84     7     7   8.9 10.00  1.02     0  0.00     0     0 104.8     0 .0007     0     0  0.00  0.00 0.059  0.03  0.00  0.00  0.00  0.00  0.00  0.00  0.00  0.00  0.00
   15  85     8     8   6.3 10.10  1.02 .0124  0.00 .0124 0.500  99.7     0 .0012     0     0  2.10  0.75 0.068  0.04  0.00  0.00  0.00  0.00  0.00  0.00  0.00  0.00  0.00
   15  86     9     9   6.5 10.21  1.03 .0254  0.00 .0254 0.623  94.5     0 .0019     0     0  3.90  0.75 0.077  0.05  0.00  0.00  0.00  0.00  0.00  0.00  0.00  0.00  0.00
   15  87    10    10   6.4 10.32  1.03 .0382  0.00 .0382 0.677  89.7     0 .0028     0     0  5.60  0.75 0.086  0.05  0.01  0.00  0.00  0.00  0.00  0.00  0.00  0.00  0.00
   15  88    11    11   9.5 10.48  1.03 .0664  0.00 .0664 0.743  79.1     0 .0043     0     0  8.13  0.75 0.099  0.06  0.01  0.00  0.00  0.00  0.00  0.00  0.00  0.00  0.00
   15  89    12    12   6.7 10.59  1.04 .0802  0.00 .0802 0.859  73.9     0 .0055     0     0  8.60  0.75 0.108  0.07  0.01  0.00  0.00  0.00  0.00  0.00  0.00  0.00  0.00
   15  90    13    13   7.8 10.72  1.04 .0927  0.00 .0927 0.950  69.2     0 .0074     0     0  8.40  0.74 0.119  0.08  0.02  0.00  0.00  0.00  0.00  0.00  0.00  0.00  0.00
   15  91    14    14   3.3 10.77  1.05 .0959  0.00 .0959 1.072  68.0     0 .0085     0     0  8.12  0.74 0.124  0.09  0.03  0.00  0.00  0.00  0.00  0.00  0.00  0.00  0.00
   15  92    15    15   3.1 10.82  1.05 .0986  0.00 .0986 1.131  67.0     0 .0096     0     0  7.91  0.74 0.128  0.10  0.03  0.00  0.00  0.00  0.00  0.00  0.00  0.00  0.00
   15  93    16    16   4.2 10.89  1.05 0.103  0.00 0.103 1.192  65.2     0 .0112     0     0  7.59  0.74 0.134  0.11  0.04  0.00  0.00  0.00  0.00  0.00  0.00  0.00  0.00
   15  94    17    17   3.6 10.95  1.05 0.107  0.00 0.107 1.282  63.9     0 .0129     0     0  7.50  0.74 0.139  0.11  0.05  0.00  0.00  0.00  0.00  0.00  0.00  0.00  0.00
   15  95    18    18   2.5 10.99  1.06 0.108  0.00 0.108 1.369  63.3     0 .0142     0     0  7.33  0.74 0.142  0.12  0.05  0.00  0.00  0.00  0.00  0.00  0.00  0.00  0.00
   15  96    19    19   1.9 11.03  1.06 0.109  0.00 0.109 1.433  62.9     0 .0153     0     0  7.21  0.74 0.145  0.13  0.05  0.00  0.00  0.00  0.00  0.00  0.00  0.00  0.00
   15  97    20    20   2.9 11.07  1.06 0.112  0.00 0.112 1.487  61.9     0 .0170     0     0  7.05  0.74 0.149  0.14  0.06  0.00  0.00  0.00  0.00  0.00  0.00  0.00  0.00
   15  98    21    21   6.6 11.18  1.07 0.125  0.00 0.125 1.577  56.9     0 .0213     0     0  7.02  0.74 0.158  0.18  0.07  0.00  0.00  0.00  0.00  0.00  0.00  0.00  0.00
   15  99    22    22  10.2 11.35  1.09 0.157  0.00 0.157 1.795  47.8     0 .0293     0     0  7.16  0.74 0.171  0.23  0.07  0.00  0.00  0.00  0.00  0.00  0.00  0.00  0.00
   15 100    23    23  11.4 11.54  1.10 0.188  0.00 0.188 2.158  40.3     0 .0398     0     0  7.07  0.74 0.185  0.29  0.08  0.00  0.00  0.00  0.00  0.00  0.00  0.00  0.00
   15 101    24    24  11.7 11.74  1.12 0.218  0.00 0.218 2.579  34.7     0 .0529     0     0  6.94  0.73 0.199  0.34  0.08  0.00  0.00  0.00  0.00  0.00  0.00  0.00  0.00
   15 102    25    25  12.3 11.94  1.14 0.240  0.00 0.240 3.028  30.6     0 .0687     0     0  6.86  0.72 0.215  0.38  0.08  0.00  0.00  0.00  0.00  0.00  0.00  0.00  0.00
   15 103    26    26  11.9 12.07  1.16 0.251  0.00 0.246 3.516  27.8 0.904 .0855     0     0  6.72  0.71 0.230  0.42  0.09  0.01  0.00  0.00  0.00  0.00  0.00  0.00  0.00
   15 104    27    27  12.1 12.17  1.18 0.260  0.01 0.250 3.998  25.9 1.833 0.104     0     0  6.58  0.71 0.245  0.45  0.09  0.01  0.00  0.00  0.00  0.00  0.00  0.00  0.00
   15 105    28    28  14.4 12.29  1.21 0.268  0.01 0.254 4.505  24.2 2.779 0.127     0     0  6.45  0.70 0.263  0.48  0.09  0.01  0.00  0.00  0.00  0.00  0.00  0.00  0.00
   15 106    29    29  15.7 12.42  1.23 0.280  0.02 0.260 5.126  23.1 3.738 0.155     0     0  6.33  0.71 0.283  0.51  0.09  0.01  0.00  0.00  0.00  0.00  0.00  0.00  0.00
   15 107    30    30  10.9 12.51  1.25 0.289  0.02 0.264 5.810  22.6 4.722 0.175     0     0  6.20  0.72 0.296  0.53  0.10  0.01  0.00  0.00  0.00  0.00  0.00  0.00  0.00
   15 108    31    31   5.5 12.56  1.26 0.292  0.02 0.267 6.288  22.4 4.722 0.185     0     0  6.05  0.72 0.303  0.57  0.11  0.02  0.00  0.00  0.00  0.00  0.00  0.00  0.00
   15 109    32    32   6.4 12.61  1.27 0.297  0.02 0.272 6.532  22.2 4.722 0.199     0     0  5.90  0.73 0.310  0.62  0.13  0.02  0.00  0.00  0.00  0.00  0.00  0.00  0.00
   15 110    33    33   8.1 12.68  1.29 0.306  0.02 0.281 6.818  22.0 4.722 0.218     0     0  5.76  0.73 0.319  0.68  0.14  0.02  0.00  0.00  0.00  0.00  0.00  0.00  0.00
   15 111    34    34  10.7 12.77  1.31 0.320  0.02 0.295 7.185  21.8 4.722 0.246     0     0  5.65  0.73 0.330  0.75  0.16  0.03  0.00  0.00  0.00  0.00  0.00  0.00  0.00
   15 112    35    35  11.2 12.86  1.33 0.335  0.02 0.310 7.669  21.7 4.722 0.278     0     0  5.56  0.74 0.342  0.83  0.17  0.03  0.00  0.00  0.00  0.00  0.00  0.00  0.00
   15 113    36    36   6.1 12.91  1.34 0.340  0.02 0.315 8.181  21.6 4.722 0.298     0     0  5.50  0.74 0.348  0.89  0.18  0.04  0.00  0.00  0.00  0.00  0.00  0.00  0.00
   15 114    37    37   8.8 12.99  1.35 0.351  0.02 0.326 8.463  21.6 4.722 0.329     0     0  5.45  0.74 0.358  0.98  0.20  0.04  0.01  0.00  0.00  0.00  0.00  0.00  0.00
   15 115    38    38  11.4 13.08  1.38 0.368  0.02 0.343 8.869  21.5 4.722 0.373     0     0  5.41  0.75 0.370  1.06  0.22  0.05  0.01  0.00  0.00  0.00  0.00  0.00  0.00
   15 116    39    39  15.1 13.21  1.40 0.393  0.02 0.368 9.402  21.4 4.722 0.436     0     0  5.38  0.75 0.386  1.13  0.23  0.05  0.01  0.00  0.00  0.00  0.00  0.00  0.00
   15 117    40    40  14.5 13.33  1.43 0.418  0.02 0.393 10.11  21.4 4.722 0.501     0     0  5.36  0.75 0.401  1.22  0.25  0.06  0.01  0.00  0.00  0.00  0.00  0.00  0.00
   15 118    41    41   8.3 13.40  1.45 0.430  0.02 0.405 10.80  21.4 4.722 0.542     0     0  5.35  0.76 0.410  1.28  0.27  0.07  0.01  0.00  0.00  0.00  0.00  0.00  0.00
   15 119    42    42   7.0 13.45  1.46 0.439  0.02 0.414 11.20  21.3 4.722 0.578     0     0  5.35  0.76 0.417  1.36  0.29  0.07  0.02  0.00  0.00  0.00  0.00  0.00  0.00
   15 120    43    43  10.4 13.54  1.48 0.458  0.02 0.433 11.53  21.3 4.722 0.636     0     0  5.35  0.76 0.428  1.43  0.32  0.08  0.02  0.00  0.00  0.00  0.00  0.00  0.00
   15 121    44    44   8.6 13.61  1.50 0.472  0.02 0.447 12.03  21.3 4.722 0.688     0     0  5.35  0.76 0.437  1.43  0.33  0.08  0.02  0.00  0.00  0.00  0.00  0.00  0.00
   15 122    45    45  10.5 13.70  1.52 0.492  0.02 0.467 12.45  21.3 4.722 0.753     0     0  5.36  0.77 0.449  1.46  0.35  0.10  0.03  0.00  0.00  0.00  0.00  0.00  0.00
   15 123    46    46  13.2 13.81  1.54 0.517  0.02 0.492 12.96  21.3 4.722 0.838     0     0  5.37  0.77 0.463  1.49  0.37  0.11  0.03  0.00  0.00  0.00  0.00  0.00  0.00
   15 124    47    47  17.5 13.96  1.58 0.551  0.02 0.526 13.61  21.3 4.722 0.957     0     0  5.39  0.77 0.481  1.52  0.39  0.12  0.04  0.00  0.00  0.00  0.00  0.00  0.00
   15 125    48    48  19.4 14.12  1.62 0.592  0.02 0.567 14.48  21.3 4.722 1.096     0     0  5.41  0.77 0.502  1.56  0.43  0.15  0.05  0.00  0.00  0.00  0.00  0.00  0.00
   15 126    49    49  11.6 14.21  1.64 0.617  0.04 0.582 15.44  21.3 6.745 1.185     0     0  5.42  0.78 0.514  1.58  0.44  0.17  0.06  0.01  0.00  0.00  0.00  0.00  0.00
   15 127    50    50  13.0 14.32  1.67 0.646  0.05 0.599 16.02  21.3 9.027 1.290     0     0  5.44  0.78 0.528  1.61  0.47  0.19  0.07  0.01  0.00  0.00  0.00  0.00  0.00
   15 128    51    51  15.5 14.45  1.70 0.681  0.06 0.620 16.67  21.3 11.75 1.423     0     0  5.46  0.78 0.544  1.64  0.50  0.22  0.09  0.02  0.00  0.00  0.00  0.00  0.00
   15 129    52    52  14.2 14.57  1.73 0.713  0.07 0.639 17.45  21.3 14.26 1.554     0     0  5.48  0.78 0.559  1.66  0.51  0.24  0.10  0.03  0.00  0.00  0.00  0.00  0.00
   15 130    53    53  13.2 14.68  1.75 0.743  0.09 0.657 18.17  21.3 16.59 1.682     0     0  5.51  0.79 0.573  1.69  0.54  0.27  0.12  0.04  0.00  0.00  0.00  0.00  0.00
   15 131    54    54  13.7 14.79  1.78 0.776  0.10 0.677 18.85  21.3 19.01 1.823     0     0  5.55  0.79 0.588  1.73  0.57  0.30  0.13  0.05  0.00  0.00  0.00  0.00  0.00
   15 132    55    55  18.0 14.94  1.82 0.821  0.11 0.712 19.55  21.3 21.00 2.020     0     0  5.59  0.79 0.607  1.78  0.60  0.33  0.15  0.06  0.00  0.00  0.00  0.00  0.00
   15 133    56    56  17.8 15.09  1.86 0.883  0.11 0.775 20.47  21.3 21.00 2.230     0     0  5.63  0.79 0.623  1.80  0.62  0.35  0.17  0.08  0.00  0.00  0.00  0.00  0.00
   15 134    57    57  15.0 15.22  1.89 0.947  0.13 0.822 21.39  21.3 24.35 2.415     0     0  5.65  0.79 0.637  1.83  0.65  0.37  0.18  0.09  0.00  0.00  0.00  0.00  0.00
   15 135    58    58  11.4 15.31  1.91     1  0.14 0.860 22.17  21.3 26.91 2.563     0     0  5.68  0.79 0.648  1.85  0.67  0.40  0.20  0.10  0.01  0.00  0.00  0.00  0.00
   15 136    59    59  12.8 15.42  1.94 1.057  0.15 0.904 22.76  21.3 29.78 2.735     0     0  5.72  0.80 0.659  1.88  0.70  0.43  0.22  0.12  0.01  0.00  0.00  0.00  0.00
   15 137    60    60  14.1 15.54  1.97 1.124  0.17 0.955 23.43  21.3 32.97 2.937     0     0  5.75  0.80 0.673  1.91  0.72  0.45  0.23  0.13  0.01  0.00  0.00  0.00  0.00
   15 138    61    61  15.4 15.66  2.00 1.200  0.19 1.014 24.17  21.3 36.44 3.167     0     0  5.79  0.80 0.687  1.95  0.75  0.48  0.26  0.15  0.02  0.00  0.00  0.00  0.00
   15 139    62    62  13.9 15.78  2.04 1.271  0.20 1.069 24.98  21.3 39.61 3.388     0     0  5.82  0.80 0.700  1.98  0.78  0.51  0.27  0.16  0.03  0.00  0.00  0.00  0.00
   15 140    63    63   8.4 15.85  2.07 1.308  0.21 1.103 26.01  21.3 40.20 3.526     0     0  5.85  0.80 0.707  2.00  0.80  0.52  0.28  0.17  0.03  0.00  0.00  0.00  0.00
   15 141    64    64   9.8 15.93  2.10 1.358  0.21 1.149 26.71  21.3 40.90 3.691     0     0  5.88  0.80 0.716  2.02  0.82  0.54  0.30  0.19  0.04  0.00  0.00  0.00  0.00
   15 142    65    65   9.9 16.01  2.13 1.414  0.21 1.201 27.52  21.3 41.61 3.863     0     0  5.93  0.81 0.726  2.06  0.85  0.57  0.32  0.21  0.04  0.00  0.00  0.00  0.00
   15 143    66    66  11.7 16.11  2.17 1.509  0.22 1.293 28.34  21.3 42.45 4.078     0     0  5.97  0.81 0.736  2.09  0.88  0.59  0.33  0.22  0.05  0.00  0.00  0.00  0.00
   15 144    67    67  12.1 16.21  2.21 1.608  0.22 1.388 29.31  21.3 43.32 4.311     0     0  6.01  0.81 0.748  2.12  0.91  0.61  0.35  0.24  0.06  0.00  0.00  0.00  0.00
   15 145    68    68  14.6 30.15  2.26 1.727  0.23 1.501 30.33  21.3 44.37 4.601     0     0  6.06  0.81 0.761  2.16  0.94  0.64  0.37  0.26  0.07  0.00  0.00  0.00  0.00
   15 146    69    69  11.6 30.67  2.30 1.820  0.23 1.590 31.54  21.3 45.21 4.841     0     0  6.10  0.81 0.772  2.19  0.96  0.66  0.38  0.27  0.08  0.00  0.00  0.00  0.00
   15 147    70    70   9.2 31.08  2.33 1.888  0.23 1.655 32.51  21.3 45.89 5.040     0     0  6.15  0.81 0.780  2.23  1.00  0.69  0.40  0.29  0.10  0.00  0.00  0.00  0.00
   15 148    71    71  11.9 31.61  2.37 1.983  0.24 1.745 33.28  21.3 46.75 5.306     0     0  6.21  0.81 0.791  2.28  1.04  0.72  0.43  0.32  0.12  0.00  0.00  0.00  0.00
   15 149    72    72  15.6 32.30  2.42 2.104  0.24 1.861 34.27  21.3 47.89 5.673     0     0  6.26  0.81 0.806  2.33  1.08  0.76  0.45  0.34  0.13  0.00  0.00  0.00  0.00
   15 150    73    73  14.9 32.97  2.47 2.216  0.25 1.968 35.57  21.3 48.99 6.043     0     0  6.29  0.81 0.820  2.36  1.11  0.78  0.47  0.36  0.15  0.00  0.00  0.00  0.00
   15 151    74    74  15.4 33.65  2.52 2.328  0.25 2.074 36.81  21.3 50.11 6.435     0     0  6.33  0.81 0.834  2.39  1.14  0.81  0.49  0.38  0.16  0.00  0.00  0.00  0.00
   15 152    75    75  19.0 34.50  2.59 2.531  0.26 2.270 38.10  21.3 51.51 6.937     0     0  6.37  0.81 0.851  2.62  1.16  0.82  0.50  0.39  0.17  0.01  0.00  0.00  0.00
   15 153    76    76  19.8 35.37  2.65 2.730  0.27 2.463 39.68  21.3 52.96 7.480     0     0  6.40  0.81 0.870  2.82  1.17  0.84  0.51  0.40  0.18  0.01  0.00  0.00  0.00
   15 154    77    77  20.5 36.28  2.72 2.917  0.27 2.642 41.33  21.3 54.47 8.062     0     0  6.42  0.81 0.889  3.05  1.19  0.85  0.52  0.41  0.19  0.01  0.00  0.00  0.00
   15 155    78    78  19.7 37.16  2.79 3.092  0.28 2.810 43.03  21.3 55.93 8.642     0     0  6.44  0.81 0.907  3.25  1.21  0.86  0.53  0.42  0.19  0.02  0.00  0.00  0.00
   15 156    79    79  21.8 38.12  2.86 3.255  0.29 2.966 44.67  21.3 57.55 9.306     0     0  6.46  0.81 0.927  3.43  1.22  0.88  0.54  0.43  0.20  0.02  0.00  0.00  0.00
   15 157    80    80  21.8 39.09  2.93 3.417  0.30 3.120 46.48  21.3 59.17 9.988     0     0  6.48  0.81 0.947  3.64  1.24  0.89  0.55  0.44  0.21  0.03  0.00  0.00  0.00
   15 158    81    81  21.5 40.04  3.00 3.654  0.31 3.349 48.29  21.3 60.77 10.68     0     0  6.50  0.81 0.967  3.79  1.25  0.90  0.56  0.45  0.21  0.03  0.00  0.00  0.00
   15 159    82    82  16.1 40.71  3.07 3.654  0.33 3.326 50.10  21.3 60.77 11.22     0     0  6.52  0.81 0.982  3.90  1.29  0.91  0.56  0.45  0.22  0.04  0.00  0.00  0.00
   15 160    83    83  12.3 41.23  3.12 3.654  0.34 3.309 51.78  21.3 60.77 11.63     0     0  6.54  0.82 0.993  3.96  1.30  0.91  0.56  0.46  0.22  0.04  0.00  0.00  0.00
   15 161    84    84  14.7 41.84  3.18 3.654  0.37 3.289 53.06  21.3 60.77 12.14     0     0  6.57  0.82 1.007  4.05  1.34  0.92  0.57  0.46  0.22  0.04  0.00  0.00  0.00
   15 162    85    85  18.3 42.60  3.26 3.654  0.39 3.263 54.60  21.3 60.77 12.77     0     0  6.60  0.83 1.022  4.15  1.38  0.92  0.57  0.47  0.23  0.05  0.00  0.00  0.00
   15 163    86    86  20.9 43.47  3.35 3.654  0.42 3.234 56.50  21.3 60.77 13.51     0     0  6.66  0.84 1.039  4.29  1.43  0.94  0.58  0.47  0.23  0.05  0.00  0.00  0.00
   15 164    87    87  20.1 44.31  3.43 3.654  0.45 3.206 58.68  21.3 60.77 14.25     0     0  6.72  0.84 1.055  4.38  1.49  0.94  0.59  0.48  0.24  0.06  0.00  0.00  0.00
   15 165    88    88  20.1 45.15  3.51 3.654  0.48 3.178 60.77  21.3 60.77 14.99     0     0  6.78  0.85 1.072  4.43  1.54  0.96  0.59  0.49  0.25  0.06  0.00  0.00  0.00
   15 166    89    89  15.1 45.78  3.58 3.654  0.50 3.157 62.87  21.3 60.77 15.57     0     0  6.82  0.86 1.084  4.44  1.57  0.97  0.60  0.49  0.25  0.07  0.00  0.00  0.00
   15 167    90    90  15.2 46.41  3.64 3.654  0.52 3.136 64.44  21.3 60.77 16.15     0     0  6.89  0.86 1.097  4.47  1.61  0.99  0.61  0.50  0.25  0.07  0.00  0.00  0.00
   15 168    91    91  14.8 47.03  3.70 3.654  0.54 3.115 66.02  21.3 60.77 16.73     0     0  6.98  0.87 1.109  4.49  1.64  1.01  0.61  0.51  0.26  0.08  0.00  0.00  0.00
   15 169    92    92  13.2 47.58  3.76 3.654  0.56 3.097 67.56  21.3 60.77 17.25     0     0  7.06  0.88 1.120  4.50  1.68  1.04  0.62  0.51  0.27  0.09  0.00  0.00  0.00
   15 170    93    93  13.2 48.13  3.81 3.654  0.58 3.078 68.94  21.3 60.77 17.78     0     0  7.13  0.88 1.131  4.51  1.70  1.05  0.63  0.52  0.27  0.09  0.00  0.00  0.00
   15 171    94    94  12.2 48.64  3.86 3.654  0.59 3.061 70.32  21.3 60.77 18.28     0     0  7.20  0.89 1.141  4.52  1.72  1.07  0.63  0.53  0.28  0.10  0.00  0.00  0.00
   15 172    95    95  13.6 49.20  3.92 3.654  0.61 3.042 71.60  21.3 60.77 18.84     0     0  7.30  0.89 1.152  4.54  1.75  1.09  0.64  0.53  0.28  0.10  0.00  0.00  0.00
   15 173    96    96  16.2 49.88  3.99 3.654  0.63 3.020 73.01  21.3 60.77 19.52     0     0  7.41  0.89 1.165  4.55  1.78  1.12  0.65  0.54  0.29  0.11  0.00  0.00  0.00
   15 174    97    97  13.1 51.70  4.04 3.654  0.65 3.001 74.69  21.3 60.77 20.08     0     0  7.51  0.90 1.176  4.56  1.80  1.14  0.66  0.55  0.29  0.11  0.00  0.00  0.00
   15 175    98    98  13.9 54.02  4.10 3.654  0.67 2.984 76.06  21.3 60.77 20.67     0     0  7.65  0.91 1.187  4.57  1.83  1.16  0.67  0.56  0.30  0.12  0.00  0.00  0.00
   15 176    99    99  13.8 56.33  4.16 3.654  0.69 2.967 77.51  21.3 60.77 21.28     0     0  7.81  0.92 1.199  4.59  1.85  1.19  0.68  0.56  0.30  0.12  0.00  0.00  0.00
   15 177   100   100  16.5 59.08  4.23 3.654  0.71 2.946 78.95  21.3 60.77 22.00     0     0  8.00  0.93 1.212  4.60  1.87  1.21  0.69  0.57  0.31  0.13  0.00  0.00  0.00
   15 178   101   101  18.4 65.34  4.30 3.654  0.73 2.923 80.67  21.3 60.77 22.82     0     0  8.15  0.94 1.227  4.60  1.89  1.22  0.69  0.57  0.31  0.13  0.00  0.00  0.00
   15 179   102   102  17.9 70.43  4.38 3.654  0.75 2.901 82.58  21.3 60.77 23.63     0     0  8.33  0.95 1.242  4.61  1.90  1.23  0.69  0.58  0.32  0.14  0.00  0.00  0.00
   15 180   103   103  18.9 71.64  4.46 3.654  0.78 2.877 84.44  21.3 60.77 24.48 16390 .0000  8.55  0.97 1.258  4.61  1.91  1.24  0.70  0.58  0.32  0.14  0.00  0.00  0.00
   15 181   104   104  20.6 72.96  4.54 3.654  0.80 2.851 86.41  21.3 60.77 25.42 16390 .0002  8.83  0.98 1.275  4.61  1.91  1.24  0.70  0.58  0.32  0.14  0.00  0.00  0.00
   15 182   105   105  21.0 74.31  4.63 3.654  0.83 2.825 88.55  21.3 60.77 26.38 16390 .0005  9.08  0.98 1.292  4.61  1.91  1.25  0.70  0.58  0.32  0.14  0.00  0.00  0.00
   15 183   106   106  22.2 75.73  4.72 3.654  0.86 2.797 90.75  21.3 60.77 27.39 16390 .0010  9.34  0.98 1.310  4.63  1.92  1.25  0.70  0.58  0.32  0.14  0.00  0.00  0.00
   15 184   107   107  23.0 77.21  4.82 3.654  0.89 2.768 93.06  21.3 60.77 28.45 16390 .0017  9.61  0.98 1.329  4.65  1.92  1.25  0.70  0.58  0.32  0.14  0.00  0.00  0.00
   15 185   108   108  24.6 78.78  4.92 3.654  0.92 2.738 95.46  21.3 60.77 29.58 16390 .0025  9.88  0.98 1.349  4.67  1.92  1.25  0.70  0.59  0.32  0.14  0.00  0.00  0.00
   15 186   109   109  25.5 80.09  5.01 3.654  0.95 2.706 98.02  21.3 60.77 30.75 16390 .0037 10.12  0.98 1.370  4.68  1.92  1.26  0.70  0.59  0.32  0.14  0.00  0.00  0.00
   15 187   110   110  23.2 80.42  5.04 3.654  0.96 2.697 100.0  21.3 60.77 31.82 16390 .0049 10.31  0.98 1.389  4.70  1.92  1.26  0.70  0.59  0.32  0.15  0.00  0.00  0.00
   15 188   111   111  25.1 80.78  5.08 3.654  1.02 2.633 100.0  21.3 60.77 32.98 16390 .0061 10.44  0.98 1.410  4.70  1.92  1.26  0.70  0.59  0.32  0.15  0.00  0.00  0.00
   15 189   112   112  17.4 81.03  5.10 3.654  1.03 2.626 100.0  21.3 60.77 33.78 16390 .0070 10.58  0.98 1.424  4.71  1.92  1.26  0.70  0.59  0.32  0.15  0.00  0.00  0.00
   15 190   113   113  13.9 81.23  5.12 3.654  1.03 2.621 100.0  21.3 60.77 34.42 16390 .0076 10.75  0.98 1.436  4.72  1.93  1.26  0.70  0.59  0.32  0.15  0.00  0.00  0.00
   15 191   114   114  14.9 81.44  5.14 3.654  1.04 2.615 100.0  21.3 60.77 35.11 16390 .0083 10.95  0.98 1.448  4.73  1.93  1.26  0.71  0.59  0.32  0.15  0.00  0.00  0.00
   15 192   115   115  18.3 81.70  5.17 3.654  1.10 2.556 100.0  21.3 60.77 35.96 16390 .0093 11.07  0.98 1.463  4.73  1.93  1.26  0.71  0.59  0.32  0.15  0.00  0.00  0.00
   15 193   116   116  20.5 82.00  5.20 3.654  1.16 2.497 100.0  21.3 60.77 36.91 16390 .0103 11.16  0.98 1.480  4.73  1.93  1.26  0.71  0.59  0.32  0.15  0.00  0.00  0.00
   15 194   117   117  18.4 82.26  5.23 3.654  1.16 2.490 100.0  21.3 60.77 37.77 16390 .0112 11.25  0.98 1.495  4.73  1.93  1.26  0.71  0.59  0.33  0.15  0.00  0.00  0.00
   15 195   118   118  20.6 82.55  5.26 3.654  1.22 2.432 100.0  21.3 60.77 38.72 16390 .0123 11.32  0.98 1.512  4.73  1.93  1.26  0.71  0.59  0.33  0.15  0.00  0.00  0.00
   15 196   119   119  21.7 82.86  5.29 3.654  1.28 2.375 100.0  21.3 60.77 39.73 16390 .0134 11.37  0.98 1.529  4.73  1.93  1.26  0.70  0.59  0.32  0.15  0.00  0.00  0.00
   15 197   120   120  22.4 83.18  5.32 3.654  1.34 2.319 100.0  21.3 60.77 40.77 16390 .0145 11.42  0.98 1.548  4.73  1.93  1.26  0.70  0.59  0.32  0.15  0.00  0.00  0.00
   15 198   121   121  24.6 83.53  5.35 3.654  1.44 2.217 100.0  21.3 60.77 41.91 16390 .0158 11.46  0.98 1.568  4.72  1.93  1.26  0.70  0.59  0.32  0.15  0.00  0.00  0.00
   15 199   122   122  22.0 83.85  5.38 3.654  1.53 2.119 100.0  21.3 60.77 42.93 16390 .0169 11.48  0.98 1.586  4.72  1.93  1.26  0.70  0.59  0.32  0.15  0.00  0.00  0.00
   15 200   123   123  22.4 84.17  5.42 3.654  1.63 2.026 100.0  21.3 60.77 43.96 16390 .0181 11.51  0.98 1.604  4.71  1.92  1.26  0.70  0.59  0.32  0.15  0.00  0.00  0.00
   15 201   124   124  23.3 84.50  5.45 3.654  1.72 1.936 100.0  21.3 60.77 45.04 16390 .0192 11.53  0.98 1.624  4.71  1.92  1.26  0.70  0.58  0.32  0.15  0.00  0.00  0.00
   15 202   125   125  24.2 84.85  5.48 3.654  1.80 1.849 100.0  21.3 60.77 46.16 16390 .0205 11.55  0.98 1.644  4.70  1.92  1.25  0.70  0.58  0.32  0.15  0.00  0.00  0.00
   15 203   126   126  25.0 85.20  5.52 3.654  1.89 1.766 100.0  21.3 60.77 47.31 16390 .0217 11.57  0.98 1.664  4.70  1.92  1.25  0.70  0.58  0.32  0.15  0.00  0.00  0.00
   15 204   127   127  21.4 85.51  5.55 3.654  1.97 1.687 100.0  21.3 60.77 48.30 16390 .0228 11.59  0.98 1.682  4.69  1.91  1.25  0.70  0.58  0.32  0.15  0.00  0.00  0.00
   15 205   128   128  22.0 85.82  5.58 3.654  2.04 1.611 100.0  21.3 60.77 49.31 16390 .0240 11.60  0.98 1.700  4.69  1.91  1.25  0.70  0.58  0.32  0.15  0.00  0.00  0.00
   15 206   129   129  18.8 86.09  5.61 3.654  2.12 1.539 100.0  21.3 60.77 50.17 16390 .0249 11.61  0.98 1.715  4.68  1.91  1.25  0.70  0.58  0.32  0.15  0.00  0.00  0.00
   15 207   130   130  15.6 86.31  5.63 3.654  2.18 1.471 100.0  21.3 60.77 50.89 16390 .0257 11.63  0.98 1.728  4.68  1.91  1.25  0.70  0.58  0.32  0.15  0.00  0.00  0.00
   15 208   131   131  18.3 86.58  5.66 3.654  2.25 1.405 100.0  21.3 60.77 51.73 16390 .0266 11.64  0.98 1.743  4.68  1.91  1.25  0.70  0.58  0.32  0.15  0.00  0.00  0.00
   15 209   132   132  17.5 86.82  5.68 3.654  2.28 1.371 100.0  21.3 60.77 52.53 16390 .0275 11.65  0.98 1.757  4.67  1.91  1.25  0.70  0.58  0.32  0.15  0.00  0.00  0.00
   15 210   133   133  15.0 87.04  5.70 3.654  2.34 1.310 100.0  21.3 60.77 53.22 16390 .0282 11.66  0.98 1.770  4.67  1.91  1.25  0.70  0.58  0.32  0.15  0.00  0.00  0.00
   15 211   134   134  14.6 87.25  5.72 3.654  2.44 1.211 100.0  21.3 60.77 53.89 16390 .0289 11.67  0.98 1.782  4.67  1.90  1.24  0.69  0.58  0.32  0.15  0.00  0.00  0.00
   15 212   135   135  16.4 87.48  5.75 3.654  2.54 1.117 100.0  21.3 60.77 54.64 16390 .0297 11.68  0.98 1.795  4.66  1.90  1.24  0.69  0.58  0.32  0.15  0.00  0.00  0.00
   15 213   136   136  17.0 87.72  5.77 3.654  2.63 1.021 100.0  21.3 60.77 55.42 16390 .0306 11.69  0.98 1.809  4.66  1.90  1.24  0.69  0.58  0.32  0.15  0.00  0.00  0.00
   15 214   137   137  19.0 88.00  5.80 3.654  2.73 0.927 100.0  21.3 60.77 56.28 16390 .0316 11.70  0.98 1.825  4.65  1.90  1.24  0.69  0.58  0.32  0.15  0.00  0.00  0.00
   15 215   138   138  19.8 88.28  5.83 3.654  2.82 0.831 100.0  21.3 60.77 57.19 16390 .0326 11.72  0.98 1.841  4.65  1.90  1.24  0.69  0.58  0.32  0.15  0.00  0.00  0.00
   15 216   139   139  21.9 88.59  5.86 3.654  2.92 0.736 100.0  21.3 60.77 58.18 16390 .0337 11.73  0.98 1.859  4.64  1.89  1.24  0.69  0.58  0.32  0.15  0.00  0.00  0.00
   15 217   140   140  21.8 88.90  5.89 3.654  3.02 0.638 100.0  21.3 60.77 59.17 16390 .0348 11.74  0.98 1.877  4.64  1.89  1.24  0.69  0.58  0.32  0.15  0.00  0.00  0.00
   15 218   141   141  23.4 89.24  5.92 3.654  3.11 0.545 100.0  21.3 60.77 60.24 16390 .0360 11.76  0.98 1.896  4.63  1.89  1.24  0.69  0.58  0.32  0.15  0.00  0.00  0.00
   15 219   142   142  24.8 89.59  5.96 3.654  3.20 0.450 100.0  21.3 60.77 61.36 16390 .0373 11.77  0.98 1.916  4.63  1.89  1.23  0.69  0.57  0.32  0.15  0.00  0.00  0.00
   15 220   143   143  25.2 89.95  5.99 3.654  3.30 0.355 100.0  21.3 60.77 62.51 16390 .0385 11.79  0.98 1.937  4.62  1.89  1.23  0.69  0.57  0.32  0.15  0.00  0.00  0.00
   15 221   144   144  24.7 91.05  6.11 3.654  3.39 0.262 100.0  21.3 60.77 63.63 16390 .0390 11.80  0.98 1.957  4.62  1.88  1.23  0.69  0.57  0.32  0.15  0.00  0.00  0.00

*DSSAT Cropping System Model Ver. 4.8.5.000 -release  OCT 24, 2025 14:14:59

*RUN   2        : 2                         CSCER048 TUDU1501    2
 MODEL          : CSCER048 - Wheat
 EXPERIMENT     : TUDU1501 WH
 DATA PATH      :
 TREATMENT  2   : 2                         CSCER048
  
@YEAR DOY   DAS   DAP TMEAN  GSTD  RSTD LAIPD LAISD  LAID  CHTD SDWAD SNWLD SNWSD  H#AD  HWUD SHRTD  PTFD  RDPD  RL1D  RL2D  RL3D  RL4D  RL5D  RL6D  RL7D  RL8D  RL9D RL10D
   15  77     0     0   7.7     0  1.02     0  0.00     0     0 106.5     0     0     0     0  0.00  0.98 0.025  0.00  0.00  0.00  0.00  0.00  0.00  0.00  0.00  0.00  0.00
   15  78     1     1   6.3 2.650  1.02     0  0.00     0     0 106.5     0     0     0     0  0.00  0.98 0.025  0.00  0.00  0.00  0.00  0.00  0.00  0.00  0.00  0.00  0.00
   15  79     2     2   5.4 4.825  1.02     0  0.00     0     0 106.5     0     0     0     0  0.00  0.98 0.025  0.00  0.00  0.00  0.00  0.00  0.00  0.00  0.00  0.00  0.00
   15  80     3     3   5.3 5.988  1.02     0  0.00     0     0 106.5     0     0     0     0  0.00  0.98 0.025  0.00  0.00  0.00  0.00  0.00  0.00  0.00  0.00  0.00  0.00
   15  81     4     4   4.1 6.775  1.02     0  0.00     0     0 106.2     0     0     0     0  0.00  0.98 0.031  0.01  0.00  0.00  0.00  0.00  0.00  0.00  0.00  0.00  0.00
   15  82     5     5   2.8 7.213  1.02     0  0.00     0     0 106.0     0 .0000     0     0  0.00  0.98 0.035  0.01  0.00  0.00  0.00  0.00  0.00  0.00  0.00  0.00  0.00
   15  83     6     6   6.6 8.612  1.02     0  0.00     0     0 105.5     0 .0002     0     0  0.00  0.98 0.045  0.02  0.00  0.00  0.00  0.00  0.00  0.00  0.00  0.00  0.00
   15  84     7     7   8.9 10.00  1.02     0  0.00     0     0 104.8     0 .0007     0     0  0.00  0.98 0.059  0.03  0.00  0.00  0.00  0.00  0.00  0.00  0.00  0.00  0.00
   15  85     8     8   6.3 10.10  1.02 .0124  0.00 .0124 0.500  99.7     0 .0012     0     0  2.10  0.75 0.068  0.04  0.00  0.00  0.00  0.00  0.00  0.00  0.00  0.00  0.00
   15  86     9     9   6.5 10.21  1.03 .0254  0.00 .0254 0.623  94.5     0 .0019     0     0  3.90  0.75 0.077  0.05  0.00  0.00  0.00  0.00  0.00  0.00  0.00  0.00  0.00
   15  87    10    10   6.4 10.32  1.03 .0382  0.00 .0382 0.677  89.7     0 .0028     0     0  5.60  0.75 0.086  0.05  0.01  0.00  0.00  0.00  0.00  0.00  0.00  0.00  0.00
   15  88    11    11   9.5 10.48  1.03 .0664  0.00 .0664 0.743  79.1     0 .0043     0     0  8.13  0.75 0.099  0.06  0.01  0.00  0.00  0.00  0.00  0.00  0.00  0.00  0.00
   15  89    12    12   6.7 10.59  1.04 .0802  0.00 .0802 0.859  73.9     0 .0055     0     0  8.60  0.75 0.108  0.07  0.01  0.00  0.00  0.00  0.00  0.00  0.00  0.00  0.00
   15  90    13    13   7.8 10.72  1.04 .0927  0.00 .0927 0.950  69.2     0 .0074     0     0  8.40  0.74 0.119  0.08  0.02  0.00  0.00  0.00  0.00  0.00  0.00  0.00  0.00
   15  91    14    14   3.3 10.77  1.05 .0959  0.00 .0959 1.072  68.0     0 .0085     0     0  8.12  0.74 0.124  0.09  0.03  0.00  0.00  0.00  0.00  0.00  0.00  0.00  0.00
   15  92    15    15   3.1 10.82  1.05 .0986  0.00 .0986 1.131  67.0     0 .0096     0     0  7.91  0.74 0.128  0.10  0.03  0.00  0.00  0.00  0.00  0.00  0.00  0.00  0.00
   15  93    16    16   4.2 10.89  1.05 0.103  0.00 0.103 1.192  65.2     0 .0112     0     0  7.59  0.74 0.134  0.11  0.04  0.00  0.00  0.00  0.00  0.00  0.00  0.00  0.00
   15  94    17    17   3.6 10.95  1.05 0.107  0.00 0.107 1.282  63.9     0 .0129     0     0  7.50  0.74 0.139  0.11  0.05  0.00  0.00  0.00  0.00  0.00  0.00  0.00  0.00
   15  95    18    18   2.5 10.99  1.06 0.108  0.00 0.108 1.369  63.3     0 .0142     0     0  7.33  0.74 0.142  0.12  0.05  0.00  0.00  0.00  0.00  0.00  0.00  0.00  0.00
   15  96    19    19   1.9 11.03  1.06 0.109  0.00 0.109 1.433  62.9     0 .0153     0     0  7.21  0.74 0.145  0.13  0.05  0.00  0.00  0.00  0.00  0.00  0.00  0.00  0.00
   15  97    20    20   2.9 11.07  1.06 0.112  0.00 0.112 1.487  61.9     0 .0170     0     0  7.05  0.74 0.149  0.14  0.06  0.00  0.00  0.00  0.00  0.00  0.00  0.00  0.00
   15  98    21    21   6.6 11.18  1.07 0.125  0.00 0.125 1.577  56.9     0 .0213     0     0  7.02  0.74 0.158  0.18  0.07  0.00  0.00  0.00  0.00  0.00  0.00  0.00  0.00
   15  99    22    22  10.2 11.35  1.09 0.157  0.00 0.157 1.795  47.8     0 .0293     0     0  7.16  0.74 0.171  0.23  0.07  0.00  0.00  0.00  0.00  0.00  0.00  0.00  0.00
   15 100    23    23  11.4 11.54  1.10 0.190  0.00 0.190 2.158  40.3     0 .0398     0     0  7.07  0.74 0.185  0.29  0.08  0.00  0.00  0.00  0.00  0.00  0.00  0.00  0.00
   15 101    24    24  11.7 11.74  1.12 0.222  0.00 0.222 2.579  34.7     0 .0529     0     0  6.94  0.73 0.199  0.35  0.08  0.00  0.00  0.00  0.00  0.00  0.00  0.00  0.00
   15 102    25    25  12.3 11.94  1.14 0.243  0.00 0.243 3.028  30.6     0 .0690     0     0  6.84  0.72 0.215  0.39  0.08  0.00  0.00  0.00  0.00  0.00  0.00  0.00  0.00
   15 103    26    26  11.9 12.07  1.16 0.255  0.00 0.250 3.516  27.8 0.918 .0861     0     0  6.69  0.71 0.230  0.43  0.09  0.01  0.00  0.00  0.00  0.00  0.00  0.00  0.00
   15 104    27    27  12.1 12.17  1.18 0.264  0.01 0.254 3.998  25.9 1.862 0.105     0     0  6.55  0.71 0.245  0.47  0.09  0.01  0.00  0.00  0.00  0.00  0.00  0.00  0.00
   15 105    28    28  14.4 12.29  1.21 0.272  0.01 0.257 4.505  24.2 2.820 0.129     0     0  6.40  0.70 0.263  0.50  0.09  0.01  0.00  0.00  0.00  0.00  0.00  0.00  0.00
   15 106    29    29  15.7 12.42  1.23 0.284  0.02 0.263 5.126  23.1 3.794 0.157     0     0  6.27  0.71 0.283  0.53  0.10  0.01  0.00  0.00  0.00  0.00  0.00  0.00  0.00
   15 107    30    30  10.9 12.51  1.25 0.293  0.03 0.268 5.810  22.6 4.791 0.178     0     0  6.15  0.72 0.296  0.55  0.11  0.01  0.00  0.00  0.00  0.00  0.00  0.00  0.00
   15 108    31    31   5.5 12.56  1.26 0.297  0.03 0.271 6.288  22.4 4.791 0.189     0     0  6.00  0.73 0.303  0.59  0.12  0.02  0.00  0.00  0.00  0.00  0.00  0.00  0.00
   15 109    32    32   6.4 12.61  1.27 0.302  0.03 0.277 6.532  22.2 4.791 0.203     0     0  5.87  0.73 0.310  0.64  0.14  0.02  0.00  0.00  0.00  0.00  0.00  0.00  0.00
   15 110    33    33   8.1 12.68  1.29 0.311  0.03 0.285 6.818  22.0 4.791 0.223     0     0  5.74  0.73 0.319  0.70  0.15  0.02  0.00  0.00  0.00  0.00  0.00  0.00  0.00
   15 111    34    34  10.7 12.77  1.31 0.326  0.03 0.300 7.185  21.8 4.791 0.252     0     0  5.64  0.74 0.330  0.77  0.17  0.03  0.00  0.00  0.00  0.00  0.00  0.00  0.00
   15 112    35    35  11.2 12.86  1.33 0.342  0.03 0.316 7.669  21.7 4.791 0.286     0     0  5.56  0.74 0.342  0.84  0.19  0.04  0.00  0.00  0.00  0.00  0.00  0.00  0.00
   15 113    36    36   6.1 12.91  1.34 0.347  0.03 0.322 8.181  21.6 4.791 0.307     0     0  5.51  0.75 0.348  0.90  0.21  0.04  0.00  0.00  0.00  0.00  0.00  0.00  0.00
   15 114    37    37   8.8 12.99  1.35 0.359  0.03 0.334 8.463  21.6 4.791 0.339     0     0  5.45  0.75 0.358  0.99  0.23  0.05  0.01  0.00  0.00  0.00  0.00  0.00  0.00
   15 115    38    38  11.4 13.08  1.38 0.377  0.03 0.352 8.869  21.5 4.791 0.385     0     0  5.42  0.75 0.370  1.07  0.25  0.05  0.01  0.00  0.00  0.00  0.00  0.00  0.00
   15 116    39    39  15.1 13.21  1.40 0.404  0.03 0.379 9.402  21.4 4.791 0.452     0     0  5.40  0.75 0.386  1.14  0.27  0.06  0.01  0.00  0.00  0.00  0.00  0.00  0.00
   15 117    40    40  14.5 13.33  1.43 0.430  0.03 0.405 10.11  21.4 4.791 0.521     0     0  5.39  0.76 0.401  1.23  0.29  0.06  0.01  0.00  0.00  0.00  0.00  0.00  0.00
   15 118    41    41   8.3 13.40  1.45 0.443  0.03 0.417 10.80  21.4 4.791 0.564     0     0  5.38  0.76 0.410  1.29  0.32  0.07  0.01  0.00  0.00  0.00  0.00  0.00  0.00
   15 119    42    42   7.0 13.45  1.46 0.452  0.03 0.426 11.20  21.3 4.791 0.603     0     0  5.38  0.76 0.417  1.36  0.35  0.08  0.02  0.00  0.00  0.00  0.00  0.00  0.00
   15 120    43    43  10.4 13.54  1.48 0.471  0.03 0.446 11.53  21.3 4.791 0.664     0     0  5.39  0.76 0.428  1.43  0.37  0.08  0.02  0.00  0.00  0.00  0.00  0.00  0.00
   15 121    44    44   8.6 13.61  1.50 0.486  0.03 0.460 12.03  21.3 4.791 0.718     0     0  5.39  0.77 0.437  1.43  0.39  0.09  0.02  0.00  0.00  0.00  0.00  0.00  0.00
   15 122    45    45  10.5 13.70  1.52 0.506  0.03 0.481 12.45  21.3 4.791 0.787     0     0  5.40  0.77 0.449  1.46  0.41  0.10  0.03  0.00  0.00  0.00  0.00  0.00  0.00
   15 123    46    46  13.2 13.81  1.54 0.532  0.03 0.507 12.96  21.3 4.791 0.877     0     0  5.41  0.77 0.463  1.49  0.43  0.12  0.03  0.00  0.00  0.00  0.00  0.00  0.00
   15 124    47    47  17.5 13.96  1.58 0.567  0.03 0.541 13.61  21.3 4.791 1.002     0     0  5.43  0.77 0.481  1.52  0.46  0.13  0.04  0.00  0.00  0.00  0.00  0.00  0.00
   15 125    48    48  19.4 14.12  1.62 0.608  0.03 0.583 14.48  21.3 4.791 1.148     0     0  5.46  0.78 0.502  1.56  0.49  0.16  0.05  0.00  0.00  0.00  0.00  0.00  0.00
   15 126    49    49  11.6 14.21  1.64 0.634  0.04 0.598 15.44  21.3 6.815 1.241     0     0  5.47  0.78 0.514  1.58  0.51  0.18  0.06  0.01  0.00  0.00  0.00  0.00  0.00
   15 127    50    50  13.0 14.32  1.67 0.663  0.05 0.616 16.02  21.3 9.097 1.352     0     0  5.49  0.78 0.528  1.60  0.53  0.20  0.08  0.01  0.00  0.00  0.00  0.00  0.00
   15 128    51    51  15.5 14.45  1.70 0.699  0.06 0.637 16.67  21.3 11.82 1.491     0     0  5.51  0.78 0.544  1.63  0.56  0.23  0.09  0.02  0.00  0.00  0.00  0.00  0.00
   15 129    52    52  14.2 14.57  1.73 0.731  0.07 0.657 17.45  21.3 14.33 1.629     0     0  5.53  0.78 0.559  1.65  0.58  0.25  0.10  0.03  0.00  0.00  0.00  0.00  0.00
   15 130    53    53  13.2 14.68  1.75 0.761  0.09 0.675 18.17  21.3 16.66 1.762     0     0  5.56  0.79 0.573  1.69  0.61  0.28  0.12  0.03  0.00  0.00  0.00  0.00  0.00
   15 131    54    54  13.7 14.79  1.78 0.794  0.10 0.695 18.85  21.3 19.09 1.909     0     0  5.59  0.79 0.588  1.72  0.64  0.31  0.14  0.05  0.00  0.00  0.00  0.00  0.00
   15 132    55    55  18.0 14.94  1.82 0.839  0.11 0.730 19.55  21.3 21.00 2.115     0     0  5.63  0.79 0.607  1.77  0.67  0.35  0.16  0.06  0.00  0.00  0.00  0.00  0.00
   15 133    56    56  17.8 15.09  1.86 0.901  0.11 0.793 20.47  21.3 21.00 2.334     0     0  5.67  0.79 0.623  1.80  0.69  0.37  0.17  0.07  0.00  0.00  0.00  0.00  0.00
   15 134    57    57  15.0 15.22  1.89 0.966  0.13 0.840 21.39  21.3 24.44 2.527     0     0  5.69  0.79 0.637  1.82  0.71  0.39  0.19  0.08  0.00  0.00  0.00  0.00  0.00
   15 135    58    58  11.4 15.31  1.91 1.017  0.14 0.877 22.17  21.3 27.07 2.681     0     0  5.71  0.79 0.648  1.85  0.74  0.42  0.20  0.10  0.00  0.00  0.00  0.00  0.00
   15 136    59    59  12.8 15.42  1.94 1.075  0.15 0.921 22.76  21.3 30.02 2.859     0     0  5.75  0.80 0.659  1.88  0.77  0.45  0.23  0.11  0.01  0.00  0.00  0.00  0.00
   15 137    60    60  14.1 15.54  1.97 1.143  0.17 0.972 23.43  21.3 33.29 3.069     0     0  5.77  0.80 0.673  1.90  0.79  0.47  0.24  0.12  0.01  0.00  0.00  0.00  0.00
   15 138    61    61  15.4 15.66  2.00 1.218  0.19 1.030 24.17  21.3 36.87 3.307     0     0  5.81  0.80 0.687  1.94  0.82  0.51  0.26  0.14  0.02  0.00  0.00  0.00  0.00
   15 139    62    62  13.9 15.78  2.04 1.289  0.20 1.085 24.98  21.3 40.11 3.535     0     0  5.84  0.80 0.700  1.97  0.85  0.53  0.28  0.16  0.02  0.00  0.00  0.00  0.00
   15 140    63    63   8.4 15.85  2.07 1.326  0.21 1.118 26.01  21.3 40.72 3.678     0     0  5.87  0.80 0.707  1.99  0.86  0.55  0.29  0.17  0.03  0.00  0.00  0.00  0.00
   15 141    64    64   9.8 15.93  2.10 1.376  0.21 1.165 26.71  21.3 41.43 3.848     0     0  5.90  0.80 0.716  2.01  0.88  0.57  0.31  0.18  0.03  0.00  0.00  0.00  0.00
   15 142    65    65   9.9 16.01  2.13 1.432  0.21 1.217 27.52  21.3 42.14 4.027     0     0  5.94  0.81 0.726  2.05  0.92  0.60  0.33  0.20  0.04  0.00  0.00  0.00  0.00
   15 143    66    66  11.7 16.11  2.17 1.527  0.22 1.308 28.34  21.3 42.99 4.248     0     0  5.99  0.81 0.736  2.08  0.95  0.62  0.35  0.22  0.05  0.00  0.00  0.00  0.00
   15 144    67    67  12.1 16.21  2.21 1.627  0.22 1.403 29.31  21.3 43.88 4.488     0     0  6.03  0.81 0.748  2.12  0.97  0.64  0.36  0.23  0.06  0.00  0.00  0.00  0.00
   15 145    68    68  14.6 30.15  2.26 1.745  0.23 1.516 30.33  21.3 44.95 4.786     0     0  6.07  0.81 0.761  2.15  1.00  0.67  0.38  0.25  0.07  0.00  0.00  0.00  0.00
   15 146    69    69  11.6 30.67  2.30 1.840  0.23 1.607 31.54  21.3 45.80 5.033     0     0  6.12  0.81 0.772  2.18  1.03  0.69  0.40  0.27  0.08  0.00  0.00  0.00  0.00
   15 147    70    70   9.2 31.08  2.33 1.910  0.24 1.673 32.51  21.3 46.48 5.237     0     0  6.17  0.82 0.780  2.22  1.06  0.72  0.42  0.29  0.10  0.00  0.00  0.00  0.00
   15 148    71    71  11.9 31.61  2.37 2.007  0.24 1.766 33.28  21.3 47.36 5.511     0     0  6.23  0.82 0.791  2.27  1.11  0.75  0.44  0.31  0.12  0.00  0.00  0.00  0.00
   15 149    72    72  15.6 32.30  2.42 2.131  0.25 1.885 34.27  21.3 48.52 5.888     0     0  6.29  0.82 0.806  2.32  1.15  0.79  0.47  0.34  0.13  0.00  0.00  0.00  0.00
   15 150    73    73  14.9 32.97  2.47 2.247  0.25 1.995 35.57  21.3 49.63 6.267     0     0  6.32  0.82 0.820  2.35  1.17  0.81  0.48  0.35  0.15  0.00  0.00  0.00  0.00
   15 151    74    74  15.4 33.65  2.52 2.363  0.26 2.105 36.81  21.3 50.77 6.669     0     0  6.37  0.82 0.834  2.39  1.21  0.84  0.51  0.38  0.16  0.00  0.00  0.00  0.00
   15 152    75    75  19.0 34.50  2.59 2.574  0.26 2.310 38.10  21.3 52.19 7.185     0     0  6.41  0.82 0.851  2.62  1.23  0.85  0.52  0.39  0.17  0.01  0.00  0.00  0.00
   15 153    76    76  19.8 35.37  2.65 2.781  0.27 2.510 39.68  21.3 53.66 7.742     0     0  6.44  0.81 0.870  2.83  1.24  0.87  0.53  0.40  0.18  0.01  0.00  0.00  0.00
   15 154    77    77  20.5 36.28  2.72 2.975  0.28 2.697 41.33  21.3 55.20 8.339     0     0  6.47  0.81 0.889  3.06  1.26  0.88  0.54  0.41  0.19  0.01  0.00  0.00  0.00
   15 155    78    78  19.7 37.16  2.79 3.157  0.29 2.871 43.03  21.3 56.67 8.935     0     0  6.49  0.81 0.907  3.27  1.28  0.90  0.55  0.42  0.20  0.02  0.00  0.00  0.00
   15 156    79    79  21.8 38.12  2.86 3.325  0.29 3.032 44.67  21.3 58.32 9.615     0     0  6.51  0.81 0.927  3.46  1.29  0.91  0.56  0.43  0.20  0.02  0.00  0.00  0.00
   15 157    80    80  21.8 39.09  2.93 3.493  0.30 3.191 46.48  21.3 59.96 10.32     0     0  6.54  0.81 0.947  3.67  1.31  0.92  0.57  0.44  0.21  0.03  0.00  0.00  0.00
   15 158    81    81  21.5 40.04  3.00 3.738  0.31 3.429 48.29  21.3 61.58 11.03     0     0  6.56  0.81 0.967  3.83  1.32  0.93  0.57  0.45  0.22  0.03  0.00  0.00  0.00
   15 159    82    82  16.1 40.71  3.07 3.738  0.33 3.406 50.10  21.3 61.58 11.58     0     0  6.58  0.81 0.982  3.94  1.36  0.94  0.58  0.45  0.22  0.04  0.00  0.00  0.00
   15 160    83    83  12.3 41.23  3.12 3.738  0.35 3.389 51.78  21.3 61.58 12.01     0     0  6.59  0.82 0.993  3.99  1.38  0.94  0.58  0.45  0.22  0.04  0.00  0.00  0.00
   15 161    84    84  14.7 41.84  3.18 3.738  0.37 3.367 53.06  21.3 61.58 12.52     0     0  6.62  0.83 1.007  4.09  1.42  0.95  0.59  0.46  0.23  0.04  0.00  0.00  0.00
   15 162    85    85  18.3 42.60  3.26 3.738  0.40 3.341 54.60  21.3 61.58 13.17     0     0  6.66  0.83 1.022  4.19  1.46  0.96  0.59  0.46  0.23  0.05  0.00  0.00  0.00
   15 163    86    86  20.9 43.47  3.35 3.738  0.43 3.311 56.50  21.3 61.58 13.93     0     0  6.72  0.84 1.039  4.33  1.52  0.97  0.60  0.47  0.24  0.05  0.00  0.00  0.00
   15 164    87    87  20.1 44.31  3.43 3.738  0.46 3.283 58.68  21.3 61.58 14.69     0     0  6.78  0.85 1.055  4.43  1.58  0.98  0.60  0.48  0.24  0.06  0.00  0.00  0.00
   15 165    88    88  20.1 45.15  3.51 3.738  0.48 3.254 60.77  21.3 61.58 15.45     0     0  6.84  0.85 1.072  4.48  1.64  0.99  0.61  0.48  0.25  0.06  0.00  0.00  0.00
   15 166    89    89  15.1 45.78  3.58 3.738  0.51 3.232 62.87  21.3 61.58 16.04     0     0  6.89  0.86 1.084  4.49  1.67  1.00  0.61  0.49  0.25  0.07  0.00  0.00  0.00
   15 167    90    90  15.2 46.41  3.64 3.738  0.53 3.211 64.44  21.3 61.58 16.64     0     0  6.96  0.87 1.097  4.51  1.71  1.02  0.62  0.49  0.25  0.07  0.00  0.00  0.00
   15 168    91    91  14.8 47.03  3.70 3.738  0.55 3.190 66.02  21.3 61.58 17.23     0     0  7.04  0.87 1.109  4.54  1.75  1.05  0.63  0.50  0.26  0.08  0.00  0.00  0.00
   15 169    92    92  13.2 47.58  3.76 3.738  0.57 3.171 67.56  21.3 61.58 17.77     0     0  7.12  0.88 1.120  4.56  1.78  1.07  0.64  0.51  0.26  0.08  0.00  0.00  0.00
   15 170    93    93  13.2 48.13  3.81 3.738  0.59 3.152 68.94  21.3 61.58 18.31     0     0  7.19  0.88 1.131  4.57  1.81  1.09  0.64  0.51  0.27  0.09  0.00  0.00  0.00
   15 171    94    94  12.2 48.64  3.86 3.738  0.60 3.134 70.32  21.3 61.58 18.82     0     0  7.27  0.89 1.141  4.58  1.83  1.11  0.65  0.52  0.27  0.09  0.00  0.00  0.00
   15 172    95    95  13.6 49.20  3.92 3.738  0.62 3.115 71.60  21.3 61.58 19.39     0     0  7.37  0.89 1.152  4.59  1.86  1.13  0.66  0.53  0.28  0.10  0.00  0.00  0.00
   15 173    96    96  16.2 49.88  3.99 3.738  0.65 3.092 73.01  21.3 61.58 20.09     0     0  7.47  0.90 1.165  4.60  1.89  1.16  0.67  0.53  0.28  0.10  0.00  0.00  0.00
   15 174    97    97  13.1 51.70  4.04 3.738  0.67 3.073 74.69  21.3 61.58 20.66     0     0  7.57  0.90 1.176  4.61  1.92  1.18  0.67  0.54  0.29  0.11  0.00  0.00  0.00
   15 175    98    98  13.9 54.02  4.10 3.738  0.68 3.055 76.06  21.3 61.58 21.27     0     0  7.70  0.91 1.187  4.63  1.94  1.20  0.68  0.55  0.29  0.11  0.00  0.00  0.00
   15 176    99    99  13.8 56.33  4.16 3.738  0.70 3.037 77.51  21.3 61.58 21.89     0     0  7.87  0.92 1.199  4.64  1.97  1.23  0.69  0.55  0.30  0.12  0.00  0.00  0.00
   15 177   100   100  16.5 59.08  4.23 3.738  0.72 3.016 78.95  21.3 61.58 22.63     0     0  8.05  0.93 1.212  4.65  1.99  1.25  0.70  0.56  0.30  0.12  0.00  0.00  0.00
   15 178   101   101  18.4 65.34  4.30 3.738  0.75 2.993 80.67  21.3 61.58 23.47     0     0  8.20  0.94 1.227  4.65  2.01  1.27  0.71  0.56  0.31  0.13  0.00  0.00  0.00
   15 179   102   102  17.9 70.43  4.38 3.738  0.77 2.970 82.58  21.3 61.58 24.29     0     0  8.38  0.95 1.242  4.66  2.02  1.28  0.71  0.57  0.31  0.13  0.00  0.00  0.00
   15 180   103   103  18.9 71.64  4.46 3.738  0.79 2.946 84.44  21.3 61.58 25.16 16849 .0000  8.59  0.97 1.258  4.66  2.03  1.28  0.71  0.57  0.31  0.13  0.00  0.00  0.00
   15 181   104   104  20.6 72.96  4.54 3.738  0.82 2.919 86.41  21.3 61.58 26.12 16849 .0002  8.86  0.98 1.275  4.66  2.03  1.29  0.72  0.57  0.31  0.13  0.00  0.00  0.00
   15 182   105   105  21.0 74.31  4.63 3.738  0.85 2.893 88.55  21.3 61.58 27.10 16849 .0005  9.12  0.98 1.292  4.66  2.04  1.29  0.72  0.57  0.31  0.13  0.00  0.00  0.00
   15 183   106   106  22.2 75.73  4.72 3.738  0.87 2.864 90.75  21.3 61.58 28.14 16849 .0010  9.37  0.98 1.310  4.68  2.04  1.30  0.72  0.57  0.31  0.13  0.00  0.00  0.00
   15 184   107   107  23.0 77.21  4.82 3.738  0.90 2.835 93.06  21.3 61.58 29.22 16849 .0017  9.64  0.98 1.329  4.70  2.04  1.30  0.72  0.57  0.31  0.14  0.00  0.00  0.00
   15 185   108   108  24.6 78.78  4.92 3.738  0.94 2.803 95.46  21.3 61.58 30.37 16849 .0025  9.90  0.98 1.349  4.72  2.04  1.30  0.72  0.57  0.32  0.14  0.00  0.00  0.00
   15 186   109   109  25.5 80.09  5.01 3.738  0.97 2.771 98.02  21.3 61.58 31.57 16849 .0037 10.14  0.98 1.370  4.74  2.05  1.30  0.72  0.57  0.32  0.14  0.00  0.00  0.00
   15 187   110   110  23.2 80.42  5.04 3.738  0.98 2.761 100.0  21.3 61.58 32.66 16849 .0049 10.31  0.98 1.389  4.75  2.05  1.31  0.72  0.57  0.32  0.14  0.00  0.00  0.00
   15 188   111   111  25.1 80.78  5.08 3.738  1.04 2.696 100.0  21.3 61.58 33.85 16849 .0061 10.43  0.98 1.410  4.75  2.05  1.31  0.72  0.57  0.32  0.14  0.00  0.00  0.00
   15 189   112   112  17.4 81.03  5.10 3.738  1.05 2.689 100.0  21.3 61.58 34.67 16849 .0070 10.57  0.98 1.424  4.76  2.05  1.31  0.72  0.57  0.32  0.14  0.00  0.00  0.00
   15 190   113   113  13.9 81.23  5.12 3.738  1.05 2.684 100.0  21.3 61.58 35.32 16849 .0076 10.73  0.98 1.436  4.77  2.05  1.31  0.72  0.57  0.32  0.14  0.00  0.00  0.00
   15 191   114   114  14.9 81.44  5.14 3.738  1.06 2.678 100.0  21.3 61.58 36.03 16849 .0083 10.94  0.98 1.448  4.79  2.05  1.31  0.72  0.57  0.32  0.14  0.00  0.00  0.00
   15 192   115   115  18.3 81.70  5.17 3.738  1.12 2.617 100.0  21.3 61.58 36.89 16849 .0093 11.05  0.98 1.463  4.79  2.06  1.31  0.72  0.57  0.32  0.14  0.00  0.00  0.00
   15 193   116   116  20.5 82.00  5.20 3.738  1.18 2.557 100.0  21.3 61.58 37.87 16849 .0103 11.14  0.98 1.480  4.80  2.06  1.31  0.72  0.57  0.32  0.14  0.00  0.00  0.00
   15 194   117   117  18.4 82.26  5.23 3.738  1.19 2.549 100.0  21.3 61.58 38.74 16849 .0112 11.22  0.98 1.495  4.80  2.06  1.31  0.72  0.57  0.32  0.14  0.00  0.00  0.00
   15 195   118   118  20.6 82.55  5.26 3.738  1.25 2.490 100.0  21.3 61.58 39.72 16849 .0123 11.29  0.98 1.512  4.80  2.05  1.31  0.72  0.57  0.32  0.14  0.00  0.00  0.00
   15 196   119   119  21.7 82.86  5.29 3.738  1.31 2.432 100.0  21.3 61.58 40.74 16849 .0134 11.34  0.98 1.529  4.80  2.05  1.31  0.72  0.57  0.32  0.14  0.00  0.00  0.00
   15 197   120   120  22.4 83.18  5.32 3.738  1.36 2.374 100.0  21.3 61.58 41.80 16849 .0145 11.38  0.98 1.548  4.80  2.05  1.31  0.72  0.57  0.32  0.14  0.00  0.00  0.00
   15 198   121   121  24.6 83.53  5.35 3.738  1.47 2.270 100.0  21.3 61.58 42.97 16849 .0158 11.42  0.98 1.568  4.79  2.05  1.31  0.72  0.57  0.32  0.14  0.00  0.00  0.00
   15 199   122   122  22.0 83.85  5.38 3.738  1.57 2.170 100.0  21.3 61.58 44.01 16849 .0169 11.45  0.98 1.586  4.79  2.05  1.30  0.72  0.57  0.32  0.14  0.00  0.00  0.00
   15 200   123   123  22.4 84.17  5.42 3.738  1.66 2.074 100.0  21.3 61.58 45.07 16849 .0181 11.47  0.98 1.604  4.78  2.05  1.30  0.72  0.57  0.32  0.14  0.00  0.00  0.00
   15 201   124   124  23.3 84.50  5.45 3.738  1.76 1.982 100.0  21.3 61.58 46.17 16849 .0192 11.50  0.98 1.624  4.78  2.04  1.30  0.72  0.57  0.32  0.14  0.00  0.00  0.00
   15 202   125   125  24.2 84.85  5.48 3.738  1.84 1.893 100.0  21.3 61.58 47.31 16849 .0205 11.52  0.98 1.644  4.77  2.04  1.30  0.72  0.57  0.32  0.14  0.00  0.00  0.00
   15 203   126   126  25.0 85.20  5.52 3.738  1.93 1.808 100.0  21.3 61.58 48.49 16849 .0217 11.53  0.98 1.664  4.77  2.04  1.30  0.71  0.57  0.31  0.14  0.00  0.00  0.00
   15 204   127   127  21.4 85.51  5.55 3.738  2.01 1.727 100.0  21.3 61.58 49.49 16849 .0228 11.55  0.98 1.682  4.76  2.04  1.30  0.71  0.57  0.31  0.14  0.00  0.00  0.00
   15 205   128   128  22.0 85.82  5.58 3.738  2.09 1.649 100.0  21.3 61.58 50.53 16849 .0240 11.57  0.98 1.700  4.76  2.04  1.30  0.71  0.57  0.31  0.14  0.00  0.00  0.00
   15 206   129   129  18.8 86.09  5.61 3.738  2.16 1.576 100.0  21.3 61.58 51.41 16849 .0249 11.58  0.98 1.715  4.76  2.03  1.29  0.71  0.57  0.31  0.14  0.00  0.00  0.00
   15 207   130   130  15.6 86.31  5.63 3.738  2.23 1.507 100.0  21.3 61.58 52.14 16849 .0257 11.59  0.98 1.728  4.75  2.03  1.29  0.71  0.57  0.31  0.14  0.00  0.00  0.00
   15 208   131   131  18.3 86.58  5.66 3.738  2.30 1.439 100.0  21.3 61.58 53.00 16849 .0266 11.60  0.98 1.743  4.75  2.03  1.29  0.71  0.57  0.31  0.14  0.00  0.00  0.00
   15 209   132   132  17.5 86.82  5.68 3.738  2.33 1.403 100.0  21.3 61.58 53.82 16849 .0275 11.62  0.98 1.757  4.74  2.03  1.29  0.71  0.57  0.31  0.14  0.00  0.00  0.00
   15 210   133   133  15.0 87.04  5.70 3.738  2.40 1.341 100.0  21.3 61.58 54.52 16849 .0282 11.63  0.98 1.770  4.74  2.03  1.29  0.71  0.56  0.31  0.14  0.00  0.00  0.00
   15 211   134   134  14.6 87.25  5.72 3.738  2.50 1.240 100.0  21.3 61.58 55.20 16849 .0289 11.64  0.98 1.782  4.74  2.03  1.29  0.71  0.56  0.31  0.14  0.00  0.00  0.00
   15 212   135   135  16.4 87.48  5.75 3.738  2.59 1.143 100.0  21.3 61.58 55.97 16849 .0297 11.65  0.98 1.795  4.73  2.02  1.29  0.71  0.56  0.31  0.14  0.00  0.00  0.00
   15 213   136   136  17.0 87.72  5.77 3.738  2.69 1.045 100.0  21.3 61.58 56.76 16849 .0306 11.66  0.98 1.809  4.73  2.02  1.29  0.71  0.56  0.31  0.14  0.00  0.00  0.00
   15 214   137   137  19.0 88.00  5.80 3.738  2.79 0.949 100.0  21.3 61.58 57.65 16849 .0316 11.67  0.98 1.825  4.73  2.02  1.29  0.71  0.56  0.31  0.14  0.00  0.00  0.00
   15 215   138   138  19.8 88.28  5.83 3.738  2.89 0.851 100.0  21.3 61.58 58.57 16849 .0326 11.68  0.98 1.841  4.72  2.02  1.29  0.71  0.56  0.31  0.14  0.00  0.00  0.00
   15 216   139   139  21.9 88.59  5.86 3.738  2.98 0.754 100.0  21.3 61.58 59.59 16849 .0337 11.69  0.98 1.859  4.72  2.02  1.28  0.71  0.56  0.31  0.14  0.00  0.00  0.00
   15 217   140   140  21.8 88.90  5.89 3.738  3.08 0.654 100.0  21.3 61.58 60.60 16849 .0348 11.71  0.98 1.877  4.71  2.01  1.28  0.71  0.56  0.31  0.14  0.00  0.00  0.00
   15 218   141   141  23.4 89.24  5.92 3.738  3.18 0.558 100.0  21.3 61.58 61.69 16849 .0360 11.72  0.98 1.896  4.70  2.01  1.28  0.70  0.56  0.31  0.14  0.00  0.00  0.00
   15 219   142   142  24.8 89.59  5.96 3.738  3.28 0.461 100.0  21.3 61.58 62.84 16849 .0373 11.74  0.98 1.916  4.70  2.01  1.28  0.70  0.56  0.31  0.14  0.00  0.00  0.00
   15 220   143   143  25.2 89.95  5.99 3.738  3.37 0.364 100.0  21.3 61.58 64.00 16849 .0385 11.75  0.98 1.937  4.69  2.01  1.28  0.70  0.56  0.31  0.14  0.00  0.00  0.00
   15 221   144   144  24.7 91.05  6.11 3.738  3.47 0.269 100.0  21.3 61.58 65.15 16849 .0390 11.77  0.98 1.957  4.69  2.00  1.28  0.70  0.56  0.31  0.14  0.00  0.00  0.00

*DSSAT Cropping System Model Ver. 4.8.5.000 -release  OCT 24, 2025 14:14:59

*RUN   3        : 3                         CSCER048 TUDU1501    3
 MODEL          : CSCER048 - Wheat
 EXPERIMENT     : TUDU1501 WH
 DATA PATH      :
 TREATMENT  3   : 3                         CSCER048
  
@YEAR DOY   DAS   DAP TMEAN  GSTD  RSTD LAIPD LAISD  LAID  CHTD SDWAD SNWLD SNWSD  H#AD  HWUD SHRTD  PTFD  RDPD  RL1D  RL2D  RL3D  RL4D  RL5D  RL6D  RL7D  RL8D  RL9D RL10D
   15  77     0     0   7.7     0  1.02     0  0.00     0     0 106.5     0     0     0     0  0.00  0.98 0.025  0.00  0.00  0.00  0.00  0.00  0.00  0.00  0.00  0.00  0.00
   15  78     1     1   6.3 2.650  1.02     0  0.00     0     0 106.5     0     0     0     0  0.00  0.98 0.025  0.00  0.00  0.00  0.00  0.00  0.00  0.00  0.00  0.00  0.00
   15  79     2     2   5.4 4.825  1.02     0  0.00     0     0 106.5     0     0     0     0  0.00  0.98 0.025  0.00  0.00  0.00  0.00  0.00  0.00  0.00  0.00  0.00  0.00
   15  80     3     3   5.3 5.988  1.02     0  0.00     0     0 106.5     0     0     0     0  0.00  0.98 0.025  0.00  0.00  0.00  0.00  0.00  0.00  0.00  0.00  0.00  0.00
   15  81     4     4   4.1 6.775  1.02     0  0.00     0     0 106.2     0     0     0     0  0.00  0.98 0.031  0.01  0.00  0.00  0.00  0.00  0.00  0.00  0.00  0.00  0.00
   15  82     5     5   2.8 7.213  1.02     0  0.00     0     0 106.0     0 .0000     0     0  0.00  0.98 0.035  0.01  0.00  0.00  0.00  0.00  0.00  0.00  0.00  0.00  0.00
   15  83     6     6   6.6 8.612  1.02     0  0.00     0     0 105.5     0 .0002     0     0  0.00  0.98 0.045  0.02  0.00  0.00  0.00  0.00  0.00  0.00  0.00  0.00  0.00
   15  84     7     7   8.9 10.00  1.02     0  0.00     0     0 104.8     0 .0007     0     0  0.00  0.98 0.059  0.03  0.00  0.00  0.00  0.00  0.00  0.00  0.00  0.00  0.00
   15  85     8     8   6.3 10.10  1.02 .0124  0.00 .0124 0.500  99.7     0 .0012     0     0  2.10  0.75 0.068  0.04  0.00  0.00  0.00  0.00  0.00  0.00  0.00  0.00  0.00
   15  86     9     9   6.5 10.21  1.03 .0254  0.00 .0254 0.623  94.5     0 .0019     0     0  3.90  0.75 0.077  0.05  0.00  0.00  0.00  0.00  0.00  0.00  0.00  0.00  0.00
   15  87    10    10   6.4 10.32  1.03 .0382  0.00 .0382 0.677  89.7     0 .0028     0     0  5.60  0.75 0.086  0.05  0.01  0.00  0.00  0.00  0.00  0.00  0.00  0.00  0.00
   15  88    11    11   9.5 10.48  1.03 .0664  0.00 .0664 0.743  79.1     0 .0043     0     0  8.13  0.75 0.099  0.06  0.01  0.00  0.00  0.00  0.00  0.00  0.00  0.00  0.00
   15  89    12    12   6.7 10.59  1.04 .0802  0.00 .0802 0.859  73.9     0 .0055     0     0  8.60  0.75 0.108  0.07  0.01  0.00  0.00  0.00  0.00  0.00  0.00  0.00  0.00
   15  90    13    13   7.8 10.72  1.04 .0927  0.00 .0927 0.950  69.2     0 .0074     0     0  8.40  0.74 0.119  0.08  0.02  0.00  0.00  0.00  0.00  0.00  0.00  0.00  0.00
   15  91    14    14   3.3 10.77  1.05 .0959  0.00 .0959 1.072  68.0     0 .0085     0     0  8.12  0.74 0.124  0.09  0.03  0.00  0.00  0.00  0.00  0.00  0.00  0.00  0.00
   15  92    15    15   3.1 10.82  1.05 .0986  0.00 .0986 1.131  67.0     0 .0096     0     0  7.91  0.74 0.128  0.10  0.03  0.00  0.00  0.00  0.00  0.00  0.00  0.00  0.00
   15  93    16    16   4.2 10.89  1.05 0.103  0.00 0.103 1.192  65.2     0 .0112     0     0  7.59  0.74 0.134  0.11  0.04  0.00  0.00  0.00  0.00  0.00  0.00  0.00  0.00
   15  94    17    17   3.6 10.95  1.05 0.107  0.00 0.107 1.282  63.9     0 .0129     0     0  7.50  0.74 0.139  0.11  0.05  0.00  0.00  0.00  0.00  0.00  0.00  0.00  0.00
   15  95    18    18   2.5 10.99  1.06 0.108  0.00 0.108 1.369  63.3     0 .0142     0     0  7.33  0.74 0.142  0.12  0.05  0.00  0.00  0.00  0.00  0.00  0.00  0.00  0.00
   15  96    19    19   1.9 11.03  1.06 0.109  0.00 0.109 1.433  62.9     0 .0153     0     0  7.21  0.74 0.145  0.13  0.05  0.00  0.00  0.00  0.00  0.00  0.00  0.00  0.00
   15  97    20    20   2.9 11.07  1.06 0.112  0.00 0.112 1.487  61.9     0 .0170     0     0  7.05  0.74 0.149  0.14  0.06  0.00  0.00  0.00  0.00  0.00  0.00  0.00  0.00
   15  98    21    21   6.6 11.18  1.07 0.125  0.00 0.125 1.577  56.9     0 .0213     0     0  7.02  0.74 0.158  0.15  0.08  0.00  0.00  0.00  0.00  0.00  0.00  0.00  0.00
   15  99    22    22  10.2 11.35  1.09 0.153  0.00 0.153 1.795  47.8     0 .0293     0     0  7.16  0.73 0.171  0.17  0.09  0.00  0.00  0.00  0.00  0.00  0.00  0.00  0.00
   15 100    23    23  11.4 11.54  1.10 0.178  0.00 0.178 2.158  40.3     0 .0397     0     0  7.08  0.72 0.185  0.19  0.11  0.01  0.00  0.00  0.00  0.00  0.00  0.00  0.00
   15 101    24    24  11.7 11.74  1.12 0.200  0.00 0.200 2.579  34.7     0 .0522     0     0  6.99  0.71 0.199  0.20  0.12  0.01  0.00  0.00  0.00  0.00  0.00  0.00  0.00
   15 102    25    25  12.3 11.94  1.14 0.220  0.00 0.220 3.028  30.6     0 .0670     0     0  6.85  0.70 0.215  0.22  0.13  0.01  0.00  0.00  0.00  0.00  0.00  0.00  0.00
   15 103    26    26  11.9 12.07  1.16 0.232  0.00 0.232 3.516  27.8     0 .0828     0     0  6.69  0.70 0.230  0.23  0.14  0.02  0.00  0.00  0.00  0.00  0.00  0.00  0.00
   15 104    27    27  12.1 12.17  1.18 0.242  0.00 0.242 3.998  25.9     0 0.100     0     0  6.53  0.70 0.245  0.24  0.16  0.02  0.00  0.00  0.00  0.00  0.00  0.00  0.00
   15 105    28    28  14.4 12.29  1.21 0.253  0.00 0.253 4.505  24.2     0 0.123     0     0  6.38  0.70 0.263  0.26  0.17  0.03  0.00  0.00  0.00  0.00  0.00  0.00  0.00
   15 106    29    29  15.7 12.42  1.23 0.265  0.01 0.259 5.126  23.1 0.956 0.150     0     0  6.21  0.70 0.283  0.27  0.18  0.04  0.00  0.00  0.00  0.00  0.00  0.00  0.00
   15 107    30    30  10.9 12.51  1.25 0.272  0.01 0.262 5.810  22.6 1.938 0.170     0     0  6.05  0.70 0.296  0.28  0.18  0.05  0.00  0.00  0.00  0.00  0.00  0.00  0.00
   15 108    31    31   5.5 12.56  1.26 0.274  0.02 0.259 6.288  22.4 2.931 0.181     0     0  5.90  0.70 0.303  0.29  0.19  0.05  0.00  0.00  0.00  0.00  0.00  0.00  0.00
   15 109    32    32   6.4 12.61  1.27 0.278  0.02 0.262 6.532  22.2 2.931 0.195     0     0  5.78  0.70 0.310  0.30  0.20  0.06  0.00  0.00  0.00  0.00  0.00  0.00  0.00
   15 110    33    33   8.1 12.68  1.29 0.283  0.02 0.268 6.818  22.0 2.931 0.213     0     0  5.65  0.71 0.319  0.31  0.22  0.07  0.00  0.00  0.00  0.00  0.00  0.00  0.00
   15 111    34    34  10.7 12.77  1.31 0.293  0.02 0.277 7.185  21.8 2.931 0.239     0     0  5.54  0.71 0.330  0.33  0.23  0.08  0.00  0.00  0.00  0.00  0.00  0.00  0.00
   15 112    35    35  11.2 12.86  1.33 0.303  0.02 0.288 7.669  21.7 2.931 0.269     0     0  5.44  0.71 0.342  0.34  0.24  0.09  0.01  0.00  0.00  0.00  0.00  0.00  0.00
   15 113    36    36   6.1 12.91  1.34 0.307  0.02 0.291 8.181  21.6 2.931 0.286     0     0  5.36  0.72 0.348  0.36  0.26  0.10  0.01  0.00  0.00  0.00  0.00  0.00  0.00
   15 114    37    37   8.8 12.99  1.35 0.314  0.02 0.298 8.463  21.6 2.931 0.313     0     0  5.28  0.72 0.358  0.38  0.27  0.12  0.01  0.00  0.00  0.00  0.00  0.00  0.00
   15 115    38    38  11.4 13.08  1.38 0.326  0.02 0.310 8.869  21.5 2.931 0.351     0     0  5.21  0.72 0.370  0.39  0.28  0.13  0.02  0.00  0.00  0.00  0.00  0.00  0.00
   15 116    39    39  15.1 13.21  1.40 0.342  0.02 0.326 9.402  21.4 2.931 0.404     0     0  5.17  0.72 0.386  0.41  0.30  0.14  0.02  0.00  0.00  0.00  0.00  0.00  0.00
   15 117    40    40  14.5 13.33  1.43 0.357  0.02 0.341 10.11  21.4 2.931 0.458     0     0  5.12  0.72 0.401  0.42  0.31  0.15  0.03  0.00  0.00  0.00  0.00  0.00  0.00
   15 118    41    41   8.3 13.40  1.45 0.364  0.02 0.348 10.80  21.4 2.931 0.491     0     0  5.08  0.72 0.410  0.43  0.32  0.16  0.03  0.00  0.00  0.00  0.00  0.00  0.00
   15 119    42    42   7.0 13.45  1.46 0.369  0.02 0.353 11.20  21.3 2.931 0.520     0     0  5.05  0.72 0.417  0.45  0.33  0.17  0.04  0.00  0.00  0.00  0.00  0.00  0.00
   15 120    43    43  10.4 13.54  1.48 0.380  0.02 0.365 11.53  21.3 2.931 0.566     0     0  5.02  0.73 0.428  0.46  0.35  0.18  0.04  0.00  0.00  0.00  0.00  0.00  0.00
   15 121    44    44   8.6 13.61  1.50 0.389  0.02 0.373 12.03  21.3 2.931 0.606     0     0  5.01  0.73 0.437  0.46  0.35  0.18  0.04  0.00  0.00  0.00  0.00  0.00  0.00
   15 122    45    45  10.5 13.70  1.52 0.401  0.02 0.385 12.45  21.3 2.931 0.655     0     0  4.99  0.73 0.449  0.48  0.36  0.19  0.05  0.00  0.00  0.00  0.00  0.00  0.00
   15 123    46    46  13.2 13.81  1.54 0.416  0.02 0.401 12.96  21.3 2.931 0.720     0     0  4.98  0.73 0.463  0.49  0.37  0.20  0.06  0.00  0.00  0.00  0.00  0.00  0.00
   15 124    47    47  17.5 13.96  1.58 0.436  0.02 0.420 13.61  21.3 2.931 0.810     0     0  4.96  0.73 0.481  0.50  0.38  0.21  0.06  0.00  0.00  0.00  0.00  0.00  0.00
   15 125    48    48  19.4 14.12  1.62 0.459  0.02 0.443 14.48  21.3 2.931 0.913     0     0  4.95  0.73 0.502  0.52  0.40  0.22  0.07  0.00  0.00  0.00  0.00  0.00  0.00
   15 126    49    49  11.6 14.21  1.64 0.472  0.03 0.446 15.44  21.3 4.944 0.977     0     0  4.92  0.73 0.514  0.53  0.41  0.23  0.08  0.01  0.00  0.00  0.00  0.00  0.00
   15 127    50    50  13.0 14.32  1.67 0.487  0.04 0.449 16.02  21.3 7.213 1.053     0     0  4.89  0.73 0.528  0.54  0.42  0.24  0.08  0.01  0.00  0.00  0.00  0.00  0.00
   15 128    51    51  15.5 14.45  1.70 0.504  0.05 0.453 16.67  21.3 9.923 1.147     0     0  4.85  0.73 0.544  0.56  0.43  0.25  0.09  0.02  0.00  0.00  0.00  0.00  0.00
   15 129    52    52  14.2 14.57  1.73 0.521  0.06 0.456 17.45  21.3 12.41 1.238     0     0  4.83  0.73 0.559  0.57  0.44  0.26  0.10  0.02  0.00  0.00  0.00  0.00  0.00
   15 130    53    53  13.2 14.68  1.75 0.535  0.08 0.459 18.17  21.3 14.73 1.325     0     0  4.81  0.74 0.573  0.58  0.45  0.27  0.11  0.03  0.00  0.00  0.00  0.00  0.00
   15 131    54    54  13.7 14.79  1.78 0.551  0.09 0.463 18.85  21.3 17.13 1.419     0     0  4.79  0.74 0.588  0.60  0.47  0.28  0.11  0.03  0.00  0.00  0.00  0.00  0.00
   15 132    55    55  18.0 14.94  1.82 0.572  0.11 0.467 19.55  21.3 20.29 1.548     0     0  4.77  0.74 0.607  0.62  0.48  0.29  0.12  0.04  0.00  0.00  0.00  0.00  0.00
   15 133    56    56  17.8 15.09  1.86 0.601  0.11 0.493 20.47  21.3 20.96 1.683     0     0  4.77  0.74 0.623  0.63  0.49  0.30  0.13  0.05  0.00  0.00  0.00  0.00  0.00
   15 134    57    57  15.0 15.22  1.89 0.629  0.12 0.506 21.39  21.3 23.81 1.800     0     0  4.75  0.74 0.637  0.64  0.50  0.31  0.14  0.06  0.00  0.00  0.00  0.00  0.00
   15 135    58    58  11.4 15.31  1.91 0.650  0.13 0.516 22.17  21.3 26.00 1.892     0     0  4.74  0.74 0.648  0.65  0.51  0.32  0.14  0.06  0.00  0.00  0.00  0.00  0.00
   15 136    59    59  12.8 15.42  1.94 0.674  0.15 0.528 22.76  21.3 28.44 1.997     0     0  4.73  0.74 0.659  0.67  0.52  0.33  0.15  0.07  0.00  0.00  0.00  0.00  0.00
   15 137    60    60  14.1 15.54  1.97 0.701  0.16 0.540 23.43  21.3 31.15 2.119     0     0  4.72  0.74 0.673  0.68  0.53  0.34  0.15  0.07  0.01  0.00  0.00  0.00  0.00
   15 138    61    61  15.4 15.66  2.00 0.731  0.18 0.555 24.17  21.3 34.11 2.255     0     0  4.71  0.74 0.687  0.69  0.55  0.35  0.16  0.08  0.01  0.00  0.00  0.00  0.00
   15 139    62    62  13.9 15.78  2.04 0.757  0.19 0.568 24.98  21.3 36.80 2.383     0     0  4.71  0.74 0.700  0.71  0.56  0.35  0.17  0.09  0.01  0.00  0.00  0.00  0.00
   15 140    63    63   8.4 15.85  2.07 0.771  0.19 0.581 26.01  21.3 37.12 2.462     0     0  4.71  0.75 0.707  0.71  0.56  0.36  0.17  0.09  0.01  0.00  0.00  0.00  0.00
   15 141    64    64   9.8 15.93  2.10 0.791  0.19 0.598 26.71  21.3 37.48 2.556     0     0  4.72  0.75 0.716  0.72  0.57  0.37  0.18  0.10  0.01  0.00  0.00  0.00  0.00
   15 142    65    65   9.9 16.01  2.13 0.813  0.19 0.618 27.52  21.3 37.85 2.652     0     0  4.73  0.75 0.726  0.74  0.58  0.38  0.18  0.10  0.02  0.00  0.00  0.00  0.00
   15 143    66    66  11.7 16.11  2.17 0.849  0.20 0.652 28.34  21.3 38.30 2.771     0     0  4.74  0.75 0.736  0.75  0.60  0.39  0.19  0.11  0.02  0.00  0.00  0.00  0.00
   15 144    67    67  12.1 16.21  2.21 0.885  0.20 0.686 29.31  21.3 38.76 2.898     0     0  4.75  0.75 0.748  0.76  0.60  0.39  0.20  0.12  0.02  0.00  0.00  0.00  0.00
   15 145    68    68  14.6 30.15  2.26 0.926  0.20 0.725 30.33  21.3 39.31 3.054     0     0  4.76  0.75 0.761  0.77  0.62  0.40  0.20  0.12  0.03  0.00  0.00  0.00  0.00
   15 146    69    69  11.6 30.67  2.30 0.959  0.20 0.755 31.54  21.3 39.75 3.181     0     0  4.77  0.75 0.772  0.79  0.62  0.41  0.21  0.13  0.03  0.00  0.00  0.00  0.00
   15 147    70    70   9.2 31.08  2.33 0.982  0.21 0.777 32.51  21.3 40.11 3.285     0     0  4.78  0.76 0.780  0.80  0.64  0.42  0.22  0.14  0.04  0.00  0.00  0.00  0.00
   15 148    71    71  11.9 31.61  2.37 1.015  0.21 0.807 33.28  21.3 40.56 3.423     0     0  4.80  0.76 0.791  0.82  0.65  0.43  0.22  0.14  0.04  0.00  0.00  0.00  0.00
   15 149    72    72  15.6 32.30  2.42 1.057  0.23 0.830 34.27  21.3 44.43 3.610     0     0  4.80  0.76 0.806  0.83  0.66  0.44  0.23  0.15  0.05  0.00  0.00  0.00  0.00
   15 150    73    73  14.9 32.97  2.47 1.096  0.25 0.850 35.57  21.3 48.37 3.794     0     0  4.80  0.76 0.820  0.84  0.67  0.45  0.24  0.16  0.05  0.00  0.00  0.00  0.00
   15 151    74    74  15.4 33.65  2.52 1.137  0.27 0.871 36.81  21.3 52.42 3.989     0     0  4.80  0.76 0.834  0.86  0.69  0.46  0.24  0.17  0.06  0.00  0.00  0.00  0.00
   15 152    75    75  19.0 34.50  2.59 1.213  0.29 0.925 38.10  21.3 56.71 4.235     0     0  4.81  0.77 0.851  0.87  0.70  0.47  0.25  0.17  0.07  0.00  0.00  0.00  0.00
   15 153    76    76  19.8 35.37  2.65 1.287  0.31 0.977 39.68  21.3 61.26 4.499     0     0  4.81  0.77 0.870  0.88  0.71  0.48  0.26  0.18  0.07  0.00  0.00  0.00  0.00
   15 154    77    77  20.5 36.28  2.72 1.359  0.33 1.026 41.33  21.3 66.07 4.779     0     0  4.82  0.77 0.889  0.90  0.72  0.49  0.27  0.19  0.08  0.01  0.00  0.00  0.00
   15 155    78    78  19.7 37.16  2.79 1.428  0.36 1.070 43.03  21.3 71.07 5.055     0     0  4.82  0.77 0.907  0.91  0.73  0.50  0.27  0.19  0.08  0.01  0.00  0.00  0.00
   15 156    79    79  21.8 38.12  2.86 1.493  0.38 1.110 44.67  21.3 76.35 5.369     0     0  4.83  0.77 0.927  0.92  0.74  0.51  0.28  0.20  0.09  0.01  0.00  0.00  0.00
   15 157    80    80  21.8 39.09  2.93 1.560  0.41 1.150 46.48  21.3 81.81 5.689     0     0  4.84  0.78 0.947  0.94  0.76  0.52  0.29  0.21  0.09  0.02  0.00  0.00  0.00
   15 158    81    81  21.5 40.04  3.00 1.659  0.44 1.223 48.29  21.3 87.45 6.014     0     0  4.85  0.78 0.967  0.95  0.76  0.53  0.29  0.21  0.10  0.02  0.00  0.00  0.00
   15 159    82    82  16.1 40.71  3.07 1.659  0.47 1.190 50.10  21.3 87.45 6.263     0     0  4.87  0.78 0.982  0.96  0.77  0.53  0.30  0.22  0.10  0.02  0.00  0.00  0.00
   15 160    83    83  12.3 41.23  3.12 1.659  0.50 1.160 51.78  21.3 87.45 6.456     0     0  4.88  0.79 0.993  0.96  0.78  0.54  0.30  0.22  0.10  0.03  0.00  0.00  0.00
   15 161    84    84  14.7 41.84  3.18 1.659  0.53 1.129 53.06  21.3 87.45 6.689     0     0  4.91  0.79 1.007  0.97  0.78  0.54  0.30  0.23  0.11  0.03  0.00  0.00  0.00
   15 162    85    85  18.3 42.60  3.26 1.659  0.56 1.097 54.60  21.3 87.45 6.983     0     0  4.95  0.80 1.022  0.98  0.79  0.55  0.31  0.23  0.11  0.03  0.00  0.00  0.00
   15 163    86    86  20.9 43.47  3.35 1.659  0.57 1.086 56.50  21.3 87.45 7.325     0     0  5.01  0.81 1.039  1.00  0.81  0.56  0.32  0.24  0.12  0.04  0.00  0.00  0.00
   15 164    87    87  20.1 44.31  3.43 1.659  0.58 1.076 58.68  21.3 87.45 7.663     0     0  5.06  0.81 1.055  1.01  0.82  0.57  0.32  0.25  0.12  0.05  0.00  0.00  0.00
   15 165    88    88  20.1 45.15  3.51 1.659  0.59 1.066 60.77  21.3 87.45 8.008     0     0  5.12  0.82 1.072  1.02  0.83  0.58  0.33  0.25  0.13  0.05  0.00  0.00  0.00
   15 166    89    89  15.1 45.78  3.58 1.659  0.60 1.058 62.87  21.3 87.45 8.272     0     0  5.15  0.83 1.084  1.03  0.83  0.58  0.33  0.26  0.13  0.05  0.00  0.00  0.00
   15 167    90    90  15.2 46.41  3.64 1.659  0.61 1.050 64.44  21.3 87.45 8.541     0     0  5.21  0.83 1.097  1.04  0.84  0.59  0.34  0.26  0.13  0.06  0.00  0.00  0.00
   15 168    91    91  14.8 47.03  3.70 1.659  0.62 1.043 66.02  21.3 87.45 8.807     0     0  5.29  0.84 1.109  1.05  0.85  0.60  0.34  0.27  0.14  0.06  0.00  0.00  0.00
   15 169    92    92  13.2 47.58  3.76 1.659  0.62 1.036 67.56  21.3 87.45 9.050     0     0  5.36  0.84 1.120  1.06  0.86  0.61  0.35  0.27  0.14  0.07  0.00  0.00  0.00
   15 170    93    93  13.2 48.13  3.81 1.659  0.63 1.029 68.94  21.3 87.45 9.297     0     0  5.42  0.85 1.131  1.07  0.87  0.61  0.36  0.28  0.15  0.07  0.00  0.00  0.00
   15 171    94    94  12.2 48.64  3.86 1.659  0.64 1.023 70.32  21.3 87.45 9.529     0     0  5.49  0.86 1.141  1.08  0.88  0.62  0.36  0.28  0.15  0.07  0.00  0.00  0.00
   15 172    95    95  13.6 49.20  3.92 1.659  0.64 1.016 71.60  21.3 87.45 9.789     0     0  5.58  0.86 1.152  1.09  0.89  0.63  0.37  0.29  0.15  0.08  0.00  0.00  0.00
   15 173    96    96  16.2 49.88  3.99 1.659  0.65 1.008 73.01  21.3 87.45 10.11     0     0  5.68  0.87 1.165  1.10  0.90  0.64  0.37  0.29  0.16  0.08  0.00  0.00  0.00
   15 174    97    97  13.1 51.70  4.04 1.659  0.66 1.001 74.69  21.3 87.45 10.37     0     0  5.78  0.87 1.176  1.11  0.91  0.64  0.38  0.30  0.16  0.09  0.00  0.00  0.00
   15 175    98    98  13.9 54.02  4.10 1.659  0.66     1 76.06  21.3 87.45 10.65     0     0  5.91  0.88 1.187  1.13  0.92  0.65  0.38  0.31  0.17  0.09  0.00  0.00  0.00
   15 176    99    99  13.8 56.33  4.16 1.659  0.67 0.989 77.51  21.3 87.45 10.93     0     0  6.08  0.90 1.199  1.14  0.93  0.66  0.39  0.31  0.17  0.10  0.00  0.00  0.00
   15 177   100   100  16.5 59.08  4.23 1.659  0.68 0.983 78.95  21.3 87.45 11.28     0     0  6.27  0.91 1.212  1.15  0.94  0.67  0.40  0.32  0.18  0.10  0.00  0.00  0.00
   15 178   101   101  18.4 65.34  4.30 1.659  0.68 0.975 80.67  21.3 87.45 11.67     0     0  6.42  0.92 1.227  1.16  0.95  0.68  0.40  0.32  0.18  0.11  0.00  0.00  0.00
   15 179   102   102  17.9 70.43  4.38 1.659  0.69 0.967 82.58  21.3 87.45 12.05     0     0  6.61  0.94 1.242  1.17  0.95  0.68  0.40  0.33  0.18  0.11  0.00  0.00  0.00
   15 180   103   103  18.9 71.64  4.46 1.659  0.70 0.960 84.44  21.3 87.45 12.46  6189 .0000  6.83  0.95 1.258  1.17  0.95  0.69  0.41  0.33  0.19  0.11  0.00  0.00  0.00
   15 181   104   104  20.6 72.96  4.54 1.659  0.71 0.951 86.41  21.3 87.45 12.91  6189 .0002  7.13  0.97 1.275  1.18  0.96  0.69  0.41  0.33  0.19  0.11  0.00  0.00  0.00
   15 182   105   105  21.0 74.31  4.63 1.659  0.72 0.942 88.55  21.3 87.45 13.37  6189 .0005  7.42  0.98 1.292  1.18  0.96  0.69  0.41  0.33  0.19  0.11  0.00  0.00  0.00
   15 183   106   106  22.2 75.73  4.72 1.659  0.73 0.933 90.75  21.3 87.45 13.86  6189 .0010  7.72  0.98 1.310  1.19  0.96  0.69  0.41  0.33  0.19  0.11  0.00  0.00  0.00
   15 184   107   107  23.0 77.21  4.82 1.659  0.74 0.923 93.06  21.3 87.45 14.37  6189 .0017  8.04  0.98 1.329  1.21  0.96  0.69  0.41  0.33  0.19  0.12  0.00  0.00  0.00
   15 185   108   108  24.6 78.78  4.92 1.659  0.75 0.913 95.46  21.3 87.45 14.92  6189 .0025  8.36  0.98 1.349  1.23  0.96  0.69  0.41  0.33  0.19  0.12  0.00  0.00  0.00
   15 186   109   109  25.5 80.09  5.01 1.659  0.76 0.902 98.02  21.3 87.45 15.48  6189 .0037  8.65  0.98 1.370  1.24  0.96  0.69  0.41  0.33  0.19  0.12  0.00  0.00  0.00
   15 187   110   110  23.2 80.42  5.04 1.659  0.76 0.899 100.0  21.3 87.45 16.00  6189 .0049  8.89  0.98 1.389  1.25  0.96  0.69  0.41  0.34  0.19  0.12  0.00  0.00  0.00
   15 188   111   111  25.1 80.78  5.08 1.659  0.76 0.896 100.0  21.3 87.45 16.56  6189 .0061  9.16  0.98 1.410  1.27  0.96  0.69  0.41  0.34  0.19  0.12  0.00  0.00  0.00
   15 189   112   112  17.4 81.03  5.10 1.659  0.77 0.894 100.0  21.3 87.45 16.95  6189 .0070  9.31  0.98 1.424  1.27  0.96  0.69  0.41  0.34  0.19  0.12  0.00  0.00  0.00
   15 190   113   113  13.9 81.23  5.12 1.659  0.77 0.892 100.0  21.3 87.45 17.26  6189 .0076  9.50  0.98 1.436  1.28  0.96  0.69  0.41  0.34  0.19  0.12  0.00  0.00  0.00
   15 191   114   114  14.9 81.44  5.14 1.659  0.77 0.890 100.0  21.3 87.45 17.59  6189 .0083  9.72  0.98 1.448  1.29  0.96  0.69  0.41  0.34  0.19  0.12  0.00  0.00  0.00
   15 192   115   115  18.3 81.70  5.17 1.659  0.77 0.888 100.0  21.3 87.45 18.00  6189 .0093  9.99  0.98 1.463  1.31  0.96  0.69  0.41  0.34  0.19  0.12  0.00  0.00  0.00
   15 193   116   116  20.5 82.00  5.20 1.659  0.77 0.885 100.0  21.3 87.45 18.47  6189 .0103 10.22  0.98 1.480  1.32  0.97  0.69  0.41  0.34  0.19  0.12  0.00  0.00  0.00
   15 194   117   117  18.4 82.26  5.23 1.659  0.78 0.883 100.0  21.3 87.45 18.88  6189 .0112 10.37  0.98 1.495  1.32  0.97  0.69  0.41  0.34  0.19  0.12  0.00  0.00  0.00
   15 195   118   118  20.6 82.55  5.26 1.659  0.78 0.880 100.0  21.3 87.45 19.35  6189 .0123 10.57  0.98 1.512  1.33  0.97  0.69  0.41  0.34  0.19  0.12  0.00  0.00  0.00
   15 196   119   119  21.7 82.86  5.29 1.659  0.78 0.877 100.0  21.3 87.45 19.84  6189 .0134 10.79  0.98 1.529  1.34  0.97  0.69  0.41  0.34  0.19  0.12  0.00  0.00  0.00
   15 197   120   120  22.4 83.18  5.32 1.659  0.78 0.875 100.0  21.3 87.45 20.35  6189 .0145 11.04  0.98 1.548  1.36  0.97  0.69  0.41  0.34  0.19  0.12  0.00  0.00  0.00
   15 198   121   121  24.6 83.53  5.35 1.659  0.79 0.871 100.0  21.3 87.45 20.91  6189 .0158 11.26  0.98 1.568  1.37  0.97  0.69  0.41  0.34  0.19  0.12  0.00  0.00  0.00
   15 199   122   122  22.0 83.85  5.38 1.659  0.79 0.869 100.0  21.3 87.45 21.41  6189 .0169 11.42  0.98 1.586  1.38  0.97  0.69  0.41  0.34  0.19  0.12  0.00  0.00  0.00
   15 200   123   123  22.4 84.17  5.42 1.659  0.79 0.866 100.0  21.3 87.45 21.92  6189 .0181 11.55  0.98 1.604  1.38  0.97  0.69  0.41  0.34  0.19  0.12  0.00  0.00  0.00
   15 201   124   124  23.3 84.50  5.45 1.659  0.81 0.845 100.0  21.3 87.45 22.45  6189 .0192 11.65  0.98 1.624  1.38  0.97  0.69  0.41  0.34  0.19  0.12  0.00  0.00  0.00
   15 202   125   125  24.2 84.85  5.48 1.659  0.83 0.825 100.0  21.3 87.45 23.00  6189 .0205 11.75  0.98 1.644  1.39  0.97  0.69  0.41  0.34  0.19  0.12  0.00  0.00  0.00
   15 203   126   126  25.0 85.20  5.52 1.659  0.85 0.806 100.0  21.3 87.45 23.57  6189 .0217 11.83  0.98 1.664  1.39  0.97  0.69  0.41  0.34  0.19  0.12  0.00  0.00  0.00
   15 204   127   127  21.4 85.51  5.55 1.659  0.87 0.787 100.0  21.3 87.45 24.06  6189 .0228 11.88  0.98 1.682  1.39  0.97  0.69  0.41  0.34  0.19  0.12  0.00  0.00  0.00
   15 205   128   128  22.0 85.82  5.58 1.659  0.89 0.768 100.0  21.3 87.45 24.56  6189 .0240 11.93  0.98 1.700  1.39  0.97  0.69  0.41  0.34  0.19  0.12  0.00  0.00  0.00
   15 206   129   129  18.8 86.09  5.61 1.659  0.91 0.750 100.0  21.3 87.45 24.99  6189 .0249 11.97  0.98 1.715  1.39  0.97  0.69  0.41  0.34  0.19  0.12  0.00  0.00  0.00
   15 207   130   130  15.6 86.31  5.63 1.659  0.93 0.733 100.0  21.3 87.45 25.34  6189 .0257 12.01  0.98 1.728  1.39  0.97  0.69  0.41  0.34  0.19  0.12  0.00  0.00  0.00
   15 208   131   131  18.3 86.58  5.66 1.659  0.94 0.716 100.0  21.3 87.45 25.76  6189 .0266 12.04  0.98 1.743  1.39  0.96  0.69  0.41  0.34  0.19  0.12  0.00  0.00  0.00
   15 209   132   132  17.5 86.82  5.68 1.659  0.96 0.700 100.0  21.3 87.45 26.16  6189 .0275 12.06  0.98 1.757  1.39  0.96  0.69  0.41  0.34  0.19  0.12  0.00  0.00  0.00
   15 210   133   133  15.0 87.04  5.70 1.659  0.98 0.684 100.0  21.3 87.45 26.50  6189 .0282 12.09  0.98 1.770  1.39  0.96  0.69  0.41  0.34  0.19  0.12  0.00  0.00  0.00
   15 211   134   134  14.6 87.25  5.72 1.659  1.01 0.646 100.0  21.3 87.45 26.83  6189 .0289 12.12  0.98 1.782  1.39  0.96  0.69  0.41  0.34  0.19  0.12  0.00  0.00  0.00
   15 212   135   135  16.4 87.48  5.75 1.659  1.05 0.609 100.0  21.3 87.45 27.21  6189 .0297 12.14  0.98 1.795  1.39  0.96  0.69  0.41  0.34  0.19  0.12  0.00  0.00  0.00
   15 213   136   136  17.0 87.72  5.77 1.659  1.09 0.570 100.0  21.3 87.45 27.59  6189 .0306 12.16  0.98 1.809  1.39  0.96  0.69  0.41  0.34  0.19  0.12  0.00  0.00  0.00
   15 214   137   137  19.0 88.00  5.80 1.659  1.13 0.531 100.0  21.3 87.45 28.02  6189 .0316 12.18  0.98 1.825  1.39  0.96  0.68  0.41  0.33  0.19  0.12  0.00  0.00  0.00
   15 215   138   138  19.8 88.28  5.83 1.659  1.18 0.479 100.0  21.3 87.45 28.47  6189 .0326 12.19  0.98 1.841  1.39  0.96  0.68  0.41  0.33  0.19  0.12  0.00  0.00  0.00
   15 216   139   139  21.9 88.59  5.86 1.659  1.23 0.428 100.0  21.3 87.45 28.96  6189 .0337 12.21  0.98 1.859  1.39  0.96  0.68  0.41  0.33  0.19  0.12  0.00  0.00  0.00
   15 217   140   140  21.8 88.90  5.89 1.659  1.28 0.375 100.0  21.3 87.45 29.46  6189 .0348 12.23  0.98 1.877  1.39  0.96  0.68  0.41  0.33  0.19  0.12  0.00  0.00  0.00
   15 218   141   141  23.4 89.24  5.92 1.659  1.33 0.325 100.0  21.3 87.45 29.98  6189 .0360 12.24  0.98 1.896  1.38  0.96  0.68  0.41  0.33  0.19  0.12  0.00  0.00  0.00
   15 219   142   142  24.8 89.59  5.96 1.659  1.39 0.273 100.0  21.3 87.45 30.54  6189 .0373 12.26  0.98 1.916  1.38  0.95  0.68  0.41  0.33  0.19  0.12  0.00  0.00  0.00
   15 220   143   143  25.2 89.95  5.99 1.659  1.44 0.222 100.0  21.3 87.45 31.11  6189 .0385 12.28  0.98 1.937  1.38  0.95  0.68  0.41  0.33  0.19  0.12  0.00  0.00  0.00
   15 221   144   144  24.7 91.05  6.11 1.659  1.48 0.177 100.0  21.3 87.45 31.67  6189 .0390 12.29  0.98 1.957  1.38  0.95  0.68  0.41  0.33  0.19  0.12  0.00  0.00  0.00

*DSSAT Cropping System Model Ver. 4.8.5.000 -release  OCT 24, 2025 14:14:59

*RUN   4        : 4                         CSCER048 TUDU1501    4
 MODEL          : CSCER048 - Wheat
 EXPERIMENT     : TUDU1501 WH
 DATA PATH      :
 TREATMENT  4   : 4                         CSCER048
  
@YEAR DOY   DAS   DAP TMEAN  GSTD  RSTD LAIPD LAISD  LAID  CHTD SDWAD SNWLD SNWSD  H#AD  HWUD SHRTD  PTFD  RDPD  RL1D  RL2D  RL3D  RL4D  RL5D  RL6D  RL7D  RL8D  RL9D RL10D
   15  77     0     0   7.7     0  1.02     0  0.00     0     0 106.5     0     0     0     0  0.00  0.98 0.025  0.00  0.00  0.00  0.00  0.00  0.00  0.00  0.00  0.00  0.00
   15  78     1     1   6.3 2.650  1.02     0  0.00     0     0 106.5     0     0     0     0  0.00  0.98 0.025  0.00  0.00  0.00  0.00  0.00  0.00  0.00  0.00  0.00  0.00
   15  79     2     2   5.4 4.825  1.02     0  0.00     0     0 106.5     0     0     0     0  0.00  0.98 0.025  0.00  0.00  0.00  0.00  0.00  0.00  0.00  0.00  0.00  0.00
   15  80     3     3   5.3 5.988  1.02     0  0.00     0     0 106.5     0     0     0     0  0.00  0.98 0.025  0.00  0.00  0.00  0.00  0.00  0.00  0.00  0.00  0.00  0.00
   15  81     4     4   4.1 6.775  1.02     0  0.00     0     0 106.2     0     0     0     0  0.00  0.98 0.031  0.01  0.00  0.00  0.00  0.00  0.00  0.00  0.00  0.00  0.00
   15  82     5     5   2.8 7.213  1.02     0  0.00     0     0 106.0     0 .0000     0     0  0.00  0.98 0.035  0.01  0.00  0.00  0.00  0.00  0.00  0.00  0.00  0.00  0.00
   15  83     6     6   6.6 8.612  1.02     0  0.00     0     0 105.5     0 .0002     0     0  0.00  0.98 0.045  0.02  0.00  0.00  0.00  0.00  0.00  0.00  0.00  0.00  0.00
   15  84     7     7   8.9 10.00  1.02     0  0.00     0     0 104.8     0 .0007     0     0  0.00  0.98 0.059  0.03  0.00  0.00  0.00  0.00  0.00  0.00  0.00  0.00  0.00
   15  85     8     8   6.3 10.10  1.02 .0124  0.00 .0124 0.500  99.7     0 .0012     0     0  2.10  0.75 0.068  0.04  0.00  0.00  0.00  0.00  0.00  0.00  0.00  0.00  0.00
   15  86     9     9   6.5 10.21  1.03 .0254  0.00 .0254 0.623  94.5     0 .0019     0     0  3.90  0.75 0.077  0.05  0.00  0.00  0.00  0.00  0.00  0.00  0.00  0.00  0.00
   15  87    10    10   6.4 10.32  1.03 .0382  0.00 .0382 0.677  89.7     0 .0028     0     0  5.60  0.75 0.086  0.05  0.01  0.00  0.00  0.00  0.00  0.00  0.00  0.00  0.00
   15  88    11    11   9.5 10.48  1.03 .0664  0.00 .0664 0.743  79.1     0 .0043     0     0  8.13  0.75 0.099  0.06  0.01  0.00  0.00  0.00  0.00  0.00  0.00  0.00  0.00
   15  89    12    12   6.7 10.59  1.04 .0802  0.00 .0802 0.859  73.9     0 .0055     0     0  8.60  0.75 0.108  0.07  0.01  0.00  0.00  0.00  0.00  0.00  0.00  0.00  0.00
   15  90    13    13   7.8 10.72  1.04 .0927  0.00 .0927 0.950  69.2     0 .0074     0     0  8.40  0.74 0.119  0.08  0.02  0.00  0.00  0.00  0.00  0.00  0.00  0.00  0.00
   15  91    14    14   3.3 10.77  1.05 .0959  0.00 .0959 1.072  68.0     0 .0085     0     0  8.12  0.74 0.124  0.09  0.03  0.00  0.00  0.00  0.00  0.00  0.00  0.00  0.00
   15  92    15    15   3.1 10.82  1.05 .0986  0.00 .0986 1.131  67.0     0 .0096     0     0  7.91  0.74 0.128  0.10  0.03  0.00  0.00  0.00  0.00  0.00  0.00  0.00  0.00
   15  93    16    16   4.2 10.89  1.05 0.103  0.00 0.103 1.192  65.2     0 .0112     0     0  7.59  0.74 0.134  0.11  0.04  0.00  0.00  0.00  0.00  0.00  0.00  0.00  0.00
   15  94    17    17   3.6 10.95  1.05 0.107  0.00 0.107 1.282  63.9     0 .0129     0     0  7.50  0.74 0.139  0.11  0.05  0.00  0.00  0.00  0.00  0.00  0.00  0.00  0.00
   15  95    18    18   2.5 10.99  1.06 0.108  0.00 0.108 1.369  63.3     0 .0142     0     0  7.33  0.74 0.142  0.12  0.05  0.00  0.00  0.00  0.00  0.00  0.00  0.00  0.00
[...]
   15 106    29    29  15.7 12.42  1.23 0.265  0.01 0.259 5.126  23.1 0.956 0.150     0     0  6.21  0.70 0.283  0.27  0.18  0.04  0.00  0.00  0.00  0.00  0.00  0.00  0.00
   15 107    30    30  10.9 12.51  1.25 0.272  0.01 0.262 5.810  22.6 1.938 0.170     0     0  6.05  0.70 0.296  0.28  0.18  0.05  0.00  0.00  0.00  0.00  0.00  0.00  0.00
   15 108    31    31   5.5 12.56  1.26 0.274  0.02 0.259 6.288  22.4 2.931 0.181     0     0  5.90  0.70 0.303  0.29  0.19  0.05  0.00  0.00  0.00  0.00  0.00  0.00  0.00
   15 109    32    32   6.4 12.61  1.27 0.278  0.02 0.262 6.532  22.2 2.931 0.195     0     0  5.78  0.70 0.310  0.30  0.20  0.06  0.00  0.00  0.00  0.00  0.00  0.00  0.00
   15 110    33    33   8.1 12.68  1.29 0.283  0.02 0.268 6.818  22.0 2.931 0.213     0     0  5.65  0.71 0.319  0.31  0.22  0.07  0.00  0.00  0.00  0.00  0.00  0.00  0.00
   15 111    34    34  10.7 12.77  1.31 0.293  0.02 0.277 7.185  21.8 2.931 0.239     0     0  5.54  0.71 0.330  0.33  0.23  0.08  0.00  0.00  0.00  0.00  0.00  0.00  0.00
   15 112    35    35  11.2 12.86  1.33 0.303  0.02 0.288 7.669  21.7 2.931 0.269     0     0  5.44  0.71 0.342  0.34  0.24  0.09  0.01  0.00  0.00  0.00  0.00  0.00  0.00
   15 113    36    36   6.1 12.91  1.34 0.307  0.02 0.291 8.181  21.6 2.931 0.286     0     0  5.36  0.72 0.348  0.36  0.26  0.10  0.01  0.00  0.00  0.00  0.00  0.00  0.00
   15 114    37    37   8.8 12.99  1.35 0.314  0.02 0.298 8.463  21.6 2.931 0.313     0     0  5.28  0.72 0.358  0.38  0.27  0.12  0.01  0.00  0.00  0.00  0.00  0.00  0.00
   15 115    38    38  11.4 13.08  1.38 0.326  0.02 0.310 8.869  21.5 2.931 0.351     0     0  5.21  0.72 0.370  0.39  0.28  0.13  0.02  0.00  0.00  0.00  0.00  0.00  0.00
   15 116    39    39  15.1 13.21  1.40 0.342  0.02 0.326 9.402  21.4 2.931 0.404     0     0  5.17  0.72 0.386  0.41  0.30  0.14  0.02  0.00  0.00  0.00  0.00  0.00  0.00
   15 117    40    40  14.5 13.33  1.43 0.357  0.02 0.341 10.11  21.4 2.931 0.458     0     0  5.12  0.72 0.401  0.42  0.31  0.15  0.03  0.00  0.00  0.00  0.00  0.00  0.00
   15 118    41    41   8.3 13.40  1.45 0.364  0.02 0.348 10.80  21.4 2.931 0.491     0     0  5.08  0.72 0.410  0.43  0.32  0.16  0.03  0.00  0.00  0.00  0.00  0.00  0.00
   15 119    42    42   7.0 13.45  1.46 0.369  0.02 0.353 11.20  21.3 2.931 0.520     0     0  5.05  0.72 0.417  0.45  0.33  0.17  0.04  0.00  0.00  0.00  0.00  0.00  0.00
   15 120    43    43  10.4 13.54  1.48 0.380  0.02 0.365 11.53  21.3 2.931 0.566     0     0  5.02  0.73 0.428  0.46  0.35  0.18  0.04  0.00  0.00  0.00  0.00  0.00  0.00
   15 121    44    44   8.6 13.61  1.50 0.389  0.02 0.373 12.03  21.3 2.931 0.606     0     0  5.01  0.73 0.437  0.46  0.35  0.18  0.04  0.00  0.00  0.00  0.00  0.00  0.00
   15 122    45    45  10.5 13.70  1.52 0.401  0.02 0.385 12.45  21.3 2.931 0.655     0     0  4.99  0.73 0.449  0.48  0.36  0.19  0.05  0.00  0.00  0.00  0.00  0.00  0.00
   15 123    46    46  13.2 13.81  1.54 0.416  0.02 0.401 12.96  21.3 2.931 0.720     0     0  4.98  0.73 0.463  0.49  0.37  0.20  0.06  0.00  0.00  0.00  0.00  0.00  0.00
   15 124    47    47  17.5 13.96  1.58 0.436  0.02 0.420 13.61  21.3 2.931 0.810     0     0  4.96  0.73 0.481  0.50  0.38  0.21  0.06  0.00  0.00  0.00  0.00  0.00  0.00
   15 125    48    48  19.4 14.12  1.62 0.459  0.02 0.443 14.48  21.3 2.931 0.913     0     0  4.95  0.73 0.502  0.52  0.40  0.22  0.07  0.00  0.00  0.00  0.00  0.00  0.00
   15 126    49    49  11.6 14.21  1.64 0.472  0.03 0.446 15.44  21.3 4.944 0.977     0     0  4.92  0.73 0.514  0.53  0.41  0.23  0.08  0.01  0.00  0.00  0.00  0.00  0.00
   15 127    50    50  13.0 14.32  1.67 0.487  0.04 0.449 16.02  21.3 7.213 1.053     0     0  4.89  0.73 0.528  0.54  0.42  0.24  0.08  0.01  0.00  0.00  0.00  0.00  0.00
   15 128    51    51  15.5 14.45  1.70 0.504  0.05 0.453 16.67  21.3 9.923 1.147     0     0  4.85  0.73 0.544  0.56  0.43  0.25  0.09  0.02  0.00  0.00  0.00  0.00  0.00
   15 129    52    52  14.2 14.57  1.73 0.521  0.06 0.456 17.45  21.3 12.41 1.238     0     0  4.83  0.73 0.559  0.57  0.44  0.26  0.10  0.02  0.00  0.00  0.00  0.00  0.00
   15 130    53    53  13.2 14.68  1.75 0.535  0.08 0.459 18.17  21.3 14.73 1.325     0     0  4.81  0.74 0.573  0.58  0.45  0.27  0.11  0.03  0.00  0.00  0.00  0.00  0.00
   15 131    54    54  13.7 14.79  1.78 0.551  0.09 0.463 18.85  21.3 17.13 1.419     0     0  4.79  0.74 0.588  0.60  0.47  0.28  0.11  0.03  0.00  0.00  0.00  0.00  0.00
   15 132    55    55  18.0 14.94  1.82 0.572  0.11 0.467 19.55  21.3 20.29 1.548     0     0  4.77  0.74 0.607  0.62  0.48  0.29  0.12  0.04  0.00  0.00  0.00  0.00  0.00
   15 133    56    56  17.8 15.09  1.86 0.601  0.11 0.493 20.47  21.3 20.96 1.683     0     0  4.77  0.74 0.623  0.63  0.49  0.30  0.13  0.05  0.00  0.00  0.00  0.00  0.00
   15 134    57    57  15.0 15.22  1.89 0.629  0.12 0.506 21.39  21.3 23.81 1.800     0     0  4.75  0.74 0.637  0.64  0.50  0.31  0.14  0.06  0.00  0.00  0.00  0.00  0.00
   15 135    58    58  11.4 15.31  1.91 0.650  0.13 0.516 22.17  21.3 26.00 1.892     0     0  4.74  0.74 0.648  0.65  0.51  0.32  0.14  0.06  0.00  0.00  0.00  0.00  0.00
   15 136    59    59  12.8 15.42  1.94 0.674  0.15 0.528 22.76  21.3 28.44 1.997     0     0  4.73  0.74 0.659  0.67  0.52  0.33  0.15  0.07  0.00  0.00  0.00  0.00  0.00
   15 137    60    60  14.1 15.54  1.97 0.701  0.16 0.540 23.43  21.3 31.15 2.119     0     0  4.72  0.74 0.673  0.68  0.53  0.34  0.15  0.07  0.01  0.00  0.00  0.00  0.00
   15 138    61    61  15.4 15.66  2.00 0.731  0.18 0.555 24.17  21.3 34.11 2.255     0     0  4.71  0.74 0.687  0.69  0.55  0.35  0.16  0.08  0.01  0.00  0.00  0.00  0.00
   15 139    62    62  13.9 15.78  2.04 0.757  0.19 0.568 24.98  21.3 36.80 2.383     0     0  4.71  0.74 0.700  0.71  0.56  0.35  0.17  0.09  0.01  0.00  0.00  0.00  0.00
   15 140    63    63   8.4 15.85  2.07 0.771  0.19 0.581 26.01  21.3 37.12 2.462     0     0  4.71  0.75 0.707  0.71  0.56  0.36  0.17  0.09  0.01  0.00  0.00  0.00  0.00
   15 141    64    64   9.8 15.93  2.10 0.791  0.19 0.598 26.71  21.3 37.48 2.556     0     0  4.72  0.75 0.716  0.72  0.57  0.37  0.18  0.10  0.01  0.00  0.00  0.00  0.00
   15 142    65    65   9.9 16.01  2.13 0.813  0.19 0.618 27.52  21.3 37.85 2.652     0     0  4.73  0.75 0.726  0.74  0.58  0.38  0.18  0.10  0.02  0.00  0.00  0.00  0.00
   15 143    66    66  11.7 16.11  2.17 0.849  0.20 0.652 28.34  21.3 38.30 2.771     0     0  4.74  0.75 0.736  0.75  0.60  0.39  0.19  0.11  0.02  0.00  0.00  0.00  0.00
   15 144    67    67  12.1 16.21  2.21 0.885  0.20 0.686 29.31  21.3 38.76 2.898     0     0  4.75  0.75 0.748  0.76  0.60  0.39  0.20  0.12  0.02  0.00  0.00  0.00  0.00
   15 145    68    68  14.6 30.15  2.26 0.926  0.20 0.725 30.33  21.3 39.31 3.054     0     0  4.76  0.75 0.761  0.77  0.62  0.40  0.20  0.12  0.03  0.00  0.00  0.00  0.00
   15 146    69    69  11.6 30.67  2.30 0.959  0.20 0.755 31.54  21.3 39.75 3.181     0     0  4.77  0.75 0.772  0.79  0.62  0.41  0.21  0.13  0.03  0.00  0.00  0.00  0.00
   15 147    70    70   9.2 31.08  2.33 0.982  0.21 0.777 32.51  21.3 40.11 3.285     0     0  4.78  0.76 0.780  0.80  0.64  0.42  0.22  0.14  0.04  0.00  0.00  0.00  0.00
   15 148    71    71  11.9 31.61  2.37 1.015  0.21 0.807 33.28  21.3 40.56 3.423     0     0  4.80  0.76 0.791  0.82  0.65  0.43  0.22  0.14  0.04  0.00  0.00  0.00  0.00
   15 149    72    72  15.6 32.30  2.42 1.057  0.23 0.830 34.27  21.3 44.43 3.610     0     0  4.80  0.76 0.806  0.83  0.66  0.44  0.23  0.15  0.05  0.00  0.00  0.00  0.00
   15 150    73    73  14.9 32.97  2.47 1.096  0.25 0.850 35.57  21.3 48.37 3.794     0     0  4.80  0.76 0.820  0.84  0.67  0.45  0.24  0.16  0.05  0.00  0.00  0.00  0.00
   15 151    74    74  15.4 33.65  2.52 1.137  0.27 0.871 36.81  21.3 52.42 3.989     0     0  4.80  0.76 0.834  0.86  0.69  0.46  0.24  0.17  0.06  0.00  0.00  0.00  0.00
   15 152    75    75  19.0 34.50  2.59 1.213  0.29 0.925 38.10  21.3 56.71 4.235     0     0  4.81  0.77 0.851  0.87  0.70  0.47  0.25  0.17  0.07  0.00  0.00  0.00  0.00
   15 153    76    76  19.8 35.37  2.65 1.287  0.31 0.977 39.68  21.3 61.26 4.499     0     0  4.81  0.77 0.870  0.88  0.71  0.48  0.26  0.18  0.07  0.00  0.00  0.00  0.00
   15 154    77    77  20.5 36.28  2.72 1.359  0.33 1.026 41.33  21.3 66.07 4.779     0     0  4.82  0.77 0.889  0.90  0.72  0.49  0.27  0.19  0.08  0.01  0.00  0.00  0.00
   15 155    78    78  19.7 37.16  2.79 1.428  0.36 1.070 43.03  21.3 71.07 5.055     0     0  4.82  0.77 0.907  0.91  0.73  0.50  0.27  0.19  0.08  0.01  0.00  0.00  0.00
   15 156    79    79  21.8 38.12  2.86 1.493  0.38 1.110 44.67  21.3 76.35 5.369     0     0  4.83  0.77 0.927  0.92  0.74  0.51  0.28  0.20  0.09  0.01  0.00  0.00  0.00
   15 157    80    80  21.8 39.09  2.93 1.560  0.41 1.150 46.48  21.3 81.81 5.689     0     0  4.84  0.78 0.947  0.94  0.76  0.52  0.29  0.21  0.09  0.02  0.00  0.00  0.00
   15 158    81    81  21.5 40.04  3.00 1.659  0.44 1.223 48.29  21.3 87.45 6.014     0     0  4.85  0.78 0.967  0.95  0.76  0.53  0.29  0.21  0.10  0.02  0.00  0.00  0.00
   15 159    82    82  16.1 40.71  3.07 1.659  0.47 1.190 50.10  21.3 87.45 6.263     0     0  4.87  0.78 0.982  0.96  0.77  0.53  0.30  0.22  0.10  0.02  0.00  0.00  0.00
   15 160    83    83  12.3 41.23  3.12 1.659  0.50 1.160 51.78  21.3 87.45 6.456     0     0  4.88  0.79 0.993  0.96  0.78  0.54  0.30  0.22  0.10  0.03  0.00  0.00  0.00
   15 161    84    84  14.7 41.84  3.18 1.659  0.53 1.129 53.06  21.3 87.45 6.689     0     0  4.91  0.79 1.007  0.97  0.78  0.54  0.30  0.23  0.11  0.03  0.00  0.00  0.00
   15 162    85    85  18.3 42.60  3.26 1.659  0.56 1.097 54.60  21.3 87.45 6.983     0     0  4.95  0.80 1.022  0.98  0.79  0.55  0.31  0.23  0.11  0.03  0.00  0.00  0.00
   15 163    86    86  20.9 43.47  3.35 1.659  0.57 1.086 56.50  21.3 87.45 7.325     0     0  5.01  0.81 1.039  1.00  0.81  0.56  0.32  0.24  0.12  0.04  0.00  0.00  0.00
   15 164    87    87  20.1 44.31  3.43 1.659  0.58 1.076 58.68  21.3 87.45 7.663     0     0  5.06  0.81 1.055  1.01  0.82  0.57  0.32  0.25  0.12  0.05  0.00  0.00  0.00
   15 165    88    88  20.1 45.15  3.51 1.659  0.59 1.066 60.77  21.3 87.45 8.008     0     0  5.12  0.82 1.072  1.02  0.83  0.58  0.33  0.25  0.13  0.05  0.00  0.00  0.00
   15 166    89    89  15.1 45.78  3.58 1.659  0.60 1.058 62.87  21.3 87.45 8.272     0     0  5.15  0.83 1.084  1.03  0.83  0.58  0.33  0.26  0.13  0.05  0.00  0.00  0.00
   15 167    90    90  15.2 46.41  3.64 1.659  0.61 1.050 64.44  21.3 87.45 8.541     0     0  5.21  0.83 1.097  1.04  0.84  0.59  0.34  0.26  0.13  0.06  0.00  0.00  0.00
   15 168    91    91  14.8 47.03  3.70 1.659  0.62 1.043 66.02  21.3 87.45 8.807     0     0  5.29  0.84 1.109  1.05  0.85  0.60  0.34  0.27  0.14  0.06  0.00  0.00  0.00
   15 169    92    92  13.2 47.58  3.76 1.659  0.62 1.036 67.56  21.3 87.45 9.050     0     0  5.36  0.84 1.120  1.06  0.86  0.61  0.35  0.27  0.14  0.07  0.00  0.00  0.00
   15 170    93    93  13.2 48.13  3.81 1.659  0.63 1.029 68.94  21.3 87.45 9.297     0     0  5.42  0.85 1.131  1.07  0.87  0.61  0.36  0.28  0.15  0.07  0.00  0.00  0.00
   15 171    94    94  12.2 48.64  3.86 1.659  0.64 1.023 70.32  21.3 87.45 9.529     0     0  5.49  0.86 1.141  1.08  0.88  0.62  0.36  0.28  0.15  0.07  0.00  0.00  0.00
   15 172    95    95  13.6 49.20  3.92 1.659  0.64 1.016 71.60  21.3 87.45 9.789     0     0  5.58  0.86 1.152  1.09  0.89  0.63  0.37  0.29  0.15  0.08  0.00  0.00  0.00
   15 173    96    96  16.2 49.88  3.99 1.659  0.65 1.008 73.01  21.3 87.45 10.11     0     0  5.68  0.87 1.165  1.10  0.90  0.64  0.37  0.29  0.16  0.08  0.00  0.00  0.00
   15 174    97    97  13.1 51.70  4.04 1.659  0.66 1.001 74.69  21.3 87.45 10.37     0     0  5.78  0.87 1.176  1.11  0.91  0.64  0.38  0.30  0.16  0.09  0.00  0.00  0.00
   15 175    98    98  13.9 54.02  4.10 1.659  0.66     1 76.06  21.3 87.45 10.65     0     0  5.91  0.88 1.187  1.13  0.92  0.65  0.38  0.31  0.17  0.09  0.00  0.00  0.00
   15 176    99    99  13.8 56.33  4.16 1.659  0.67 0.989 77.51  21.3 87.45 10.93     0     0  6.08  0.90 1.199  1.14  0.93  0.66  0.39  0.31  0.17  0.10  0.00  0.00  0.00
   15 177   100   100  16.5 59.08  4.23 1.659  0.68 0.983 78.95  21.3 87.45 11.28     0     0  6.27  0.91 1.212  1.15  0.94  0.67  0.40  0.32  0.18  0.10  0.00  0.00  0.00
   15 178   101   101  18.4 65.34  4.30 1.659  0.68 0.975 80.67  21.3 87.45 11.67     0     0  6.42  0.92 1.227  1.16  0.95  0.68  0.40  0.32  0.18  0.11  0.00  0.00  0.00
   15 179   102   102  17.9 70.43  4.38 1.659  0.69 0.967 82.58  21.3 87.45 12.05     0     0  6.61  0.94 1.242  1.17  0.95  0.68  0.40  0.33  0.18  0.11  0.00  0.00  0.00
   15 180   103   103  18.9 71.64  4.46 1.659  0.70 0.960 84.44  21.3 87.45 12.46  6189 .0000  6.83  0.95 1.258  1.17  0.95  0.69  0.41  0.33  0.19  0.11  0.00  0.00  0.00
   15 181   104   104  20.6 72.96  4.54 1.659  0.71 0.951 86.41  21.3 87.45 12.91  6189 .0002  7.13  0.97 1.275  1.18  0.96  0.69  0.41  0.33  0.19  0.11  0.00  0.00  0.00
   15 182   105   105  21.0 74.31  4.63 1.659  0.72 0.942 88.55  21.3 87.45 13.37  6189 .0005  7.42  0.98 1.292  1.18  0.96  0.69  0.41  0.33  0.19  0.11  0.00  0.00  0.00
   15 183   106   106  22.2 75.73  4.72 1.659  0.73 0.933 90.75  21.3 87.45 13.86  6189 .0010  7.72  0.98 1.310  1.18  0.96  0.69  0.41  0.33  0.19  0.12  0.00  0.00  0.00
   15 184   107   107  23.0 77.21  4.82 1.659  0.74 0.923 93.06  21.3 87.45 14.37  6189 .0017  8.04  0.98 1.329  1.18  0.96  0.69  0.41  0.34  0.19  0.12  0.00  0.00  0.00
   15 185   108   108  24.6 78.78  4.92 1.659  0.75 0.913 95.46  21.3 87.45 14.92  6189 .0025  8.36  0.98 1.349  1.18  0.96  0.69  0.41  0.34  0.19  0.12  0.00  0.00  0.00
   15 186   109   109  25.5 80.09  5.01 1.659  0.76 0.902 98.02  21.3 87.45 15.48  6189 .0037  8.65  0.98 1.370  1.18  0.97  0.69  0.41  0.34  0.19  0.12  0.00  0.00  0.00
   15 187   110   110  23.2 80.42  5.04 1.659  0.76 0.899 100.0  21.3 87.45 16.00  6189 .0049  8.89  0.98 1.389  1.18  0.97  0.70  0.41  0.34  0.19  0.12  0.00  0.00  0.00
   15 188   111   111  25.1 80.78  5.08 1.659  0.76 0.896 100.0  21.3 87.45 16.56  6189 .0061  9.15  0.98 1.410  1.19  0.97  0.70  0.42  0.34  0.19  0.12  0.00  0.00  0.00
   15 189   112   112  17.4 81.03  5.10 1.659  0.77 0.894 100.0  21.3 87.45 16.95  6189 .0070  9.30  0.98 1.424  1.19  0.97  0.70  0.42  0.34  0.19  0.12  0.00  0.00  0.00
   15 190   113   113  13.9 81.23  5.12 1.659  0.77 0.892 100.0  21.3 87.45 17.26  6189 .0076  9.47  0.98 1.436  1.19  0.97  0.70  0.42  0.34  0.19  0.12  0.00  0.00  0.00
   15 191   114   114  14.9 81.44  5.14 1.659  0.77 0.890 100.0  21.3 87.45 17.59  6189 .0083  9.66  0.98 1.448  1.19  0.97  0.70  0.42  0.34  0.20  0.12  0.00  0.00  0.00
   15 192   115   115  18.3 81.70  5.17 1.659  0.77 0.888 100.0  21.3 87.45 18.00  6189 .0093  9.88  0.98 1.463  1.19  0.97  0.70  0.42  0.34  0.20  0.12  0.00  0.00  0.00
   15 193   116   116  20.5 82.00  5.20 1.659  0.77 0.885 100.0  21.3 87.45 18.47  6189 .0103 10.05  0.98 1.480  1.19  0.97  0.70  0.42  0.34  0.20  0.12  0.00  0.00  0.00
   15 194   117   117  18.4 82.26  5.23 1.659  0.78 0.883 100.0  21.3 87.45 18.88  6189 .0112 10.13  0.98 1.495  1.19  0.97  0.70  0.42  0.34  0.20  0.12  0.00  0.00  0.00
   15 195   118   118  20.6 82.55  5.26 1.659  0.80 0.863 100.0  21.3 87.45 19.34  6189 .0123 10.22  0.98 1.512  1.19  0.97  0.70  0.42  0.34  0.20  0.12  0.00  0.00  0.00
   15 196   119   119  21.7 82.86  5.29 1.659  0.82 0.843 100.0  21.3 87.45 19.83  6189 .0134 10.30  0.98 1.529  1.19  0.97  0.70  0.42  0.34  0.20  0.12  0.00  0.00  0.00
   15 197   120   120  22.4 83.18  5.32 1.659  0.84 0.823 100.0  21.3 87.45 20.34  6189 .0145 10.39  0.98 1.548  1.19  0.97  0.70  0.42  0.34  0.20  0.12  0.00  0.00  0.00
   15 198   121   121  24.6 83.53  5.35 1.659  0.86 0.803 100.0  21.3 87.45 20.89  6189 .0158 10.46  0.98 1.568  1.19  0.97  0.70  0.42  0.34  0.20  0.12  0.00  0.00  0.00
   15 199   122   122  22.0 83.85  5.38 1.659  0.87 0.784 100.0  21.3 87.45 21.39  6189 .0169 10.51  0.98 1.586  1.19  0.97  0.70  0.42  0.34  0.20  0.12  0.00  0.00  0.00
   15 200   123   123  22.4 84.17  5.42 1.659  0.89 0.766 100.0  21.3 87.45 21.89  6189 .0181 10.55  0.98 1.604  1.19  0.97  0.70  0.42  0.34  0.20  0.12  0.00  0.00  0.00
   15 201   124   124  23.3 84.50  5.45 1.659  0.91 0.747 100.0  21.3 87.45 22.42  6189 .0192 10.59  0.98 1.624  1.18  0.97  0.70  0.42  0.34  0.20  0.12  0.00  0.00  0.00
   15 202   125   125  24.2 84.85  5.48 1.659  0.93 0.729 100.0  21.3 87.45 22.96  6189 .0205 10.62  0.98 1.644  1.18  0.97  0.70  0.42  0.34  0.20  0.12  0.00  0.00  0.00
   15 203   126   126  25.0 85.20  5.52 1.659  0.95 0.712 100.0  21.3 87.45 23.52  6189 .0217 10.65  0.98 1.664  1.18  0.96  0.70  0.42  0.34  0.20  0.12  0.00  0.00  0.00
   15 204   127   127  21.4 85.51  5.55 1.659  0.96 0.695 100.0  21.3 87.45 24.00  6189 .0228 10.68  0.98 1.682  1.18  0.96  0.70  0.42  0.34  0.20  0.12  0.00  0.00  0.00
   15 205   128   128  22.0 85.82  5.58 1.659  0.98 0.678 100.0  21.3 87.45 24.49  6189 .0240 10.70  0.98 1.700  1.18  0.96  0.69  0.42  0.34  0.20  0.12  0.00  0.00  0.00
   15 206   129   129  18.8 86.09  5.61 1.659  1.00 0.662 100.0  21.3 87.45 24.91  6189 .0249 10.72  0.98 1.715  1.18  0.96  0.69  0.42  0.34  0.20  0.12  0.00  0.00  0.00
   15 207   130   130  15.6 86.31  5.63 1.659  1.01 0.647 100.0  21.3 87.45 25.26  6189 .0257 10.73  0.98 1.728  1.18  0.96  0.69  0.42  0.34  0.20  0.12  0.00  0.00  0.00
   15 208   131   131  18.3 86.58  5.66 1.659  1.03 0.631 100.0  21.3 87.45 25.67  6189 .0266 10.75  0.98 1.743  1.18  0.96  0.69  0.41  0.34  0.20  0.12  0.00  0.00  0.00
   15 209   132   132  17.5 86.82  5.68 1.659  1.04 0.616 100.0  21.3 87.45 26.06  6189 .0275 10.76  0.98 1.757  1.18  0.96  0.69  0.41  0.34  0.20  0.12  0.00  0.00  0.00
   15 210   133   133  15.0 87.04  5.70 1.659  1.06 0.602 100.0  21.3 87.45 26.40  6189 .0282 10.77  0.98 1.770  1.18  0.96  0.69  0.41  0.34  0.20  0.12  0.00  0.00  0.00
   15 211   134   134  14.6 87.25  5.72 1.659  1.09 0.569 100.0  21.3 87.45 26.72  6189 .0289 10.78  0.98 1.782  1.17  0.96  0.69  0.41  0.34  0.20  0.12  0.00  0.00  0.00
   15 212   135   135  16.4 87.48  5.75 1.659  1.12 0.536 100.0  21.3 87.45 27.09  6189 .0297 10.79  0.98 1.795  1.17  0.96  0.69  0.41  0.34  0.20  0.12  0.00  0.00  0.00
   15 213   136   136  17.0 87.72  5.77 1.659  1.16 0.502 100.0  21.3 87.45 27.47  6189 .0306 10.80  0.98 1.809  1.17  0.96  0.69  0.41  0.34  0.19  0.12  0.00  0.00  0.00
   15 214   137   137  19.0 88.00  5.80 1.659  1.19 0.468 100.0  21.3 87.45 27.89  6189 .0316 10.81  0.98 1.825  1.17  0.96  0.69  0.41  0.34  0.19  0.12  0.00  0.00  0.00
   15 215   138   138  19.8 88.28  5.83 1.659  1.23 0.431 100.0  21.3 87.45 28.33  6189 .0326 10.83  0.98 1.841  1.17  0.95  0.69  0.41  0.34  0.19  0.12  0.00  0.00  0.00
   15 216   139   139  21.9 88.59  5.86 1.659  1.27 0.386 100.0  21.3 87.45 28.82  6189 .0337 10.84  0.98 1.859  1.17  0.95  0.69  0.41  0.34  0.19  0.12  0.00  0.00  0.00
   15 217   140   140  21.8 88.90  5.89 1.659  1.32 0.339 100.0  21.3 87.45 29.30  6189 .0348 10.85  0.98 1.877  1.17  0.95  0.69  0.41  0.34  0.19  0.12  0.00  0.00  0.00
   15 218   141   141  23.4 89.24  5.92 1.659  1.37 0.294 100.0  21.3 87.45 29.82  6189 .0360 10.86  0.98 1.896  1.17  0.95  0.69  0.41  0.34  0.19  0.12  0.00  0.00  0.00
   15 219   142   142  24.8 89.59  5.96 1.659  1.41 0.249 100.0  21.3 87.45 30.37  6189 .0373 10.88  0.98 1.916  1.16  0.95  0.69  0.41  0.34  0.19  0.12  0.00  0.00  0.00
   15 220   143   143  25.2 89.95  5.99 1.659  1.45 0.208 100.0  21.3 87.45 30.92  6189 .0385 10.89  0.98 1.937  1.16  0.95  0.68  0.41  0.34  0.19  0.12  0.00  0.00  0.00
   15 221   144   144  24.7 91.05  6.11 1.659  1.49 0.168 100.0  21.3 87.45 31.47  6189 .0390 10.90  0.98 1.957  1.16  0.95  0.68  0.41  0.34  0.19  0.12  0.00  0.00  0.00
