$PLANT NITROGEN ASPECTS OUTPUT FILE

*DSSAT Cropping System Model Ver. 4.8.5.000 -release  OCT 24, 2025 14:14:59

*RUN   1        : 1                         CSCER048 TUDU1501    1
 MODEL          : CSCER048 - Wheat
 EXPERIMENT     : TUDU1501 WH
 DATA PATH      :
 TREATMENT  1   : 1                         CSCER048
  
@YEAR DOY   DAS   DAP TMEAN  GSTD  NUAC  TNAD SDNAD  RNAD  CNAD  LNAD  SNAD  HNAD   HIND  RSNAD  SNNPD SNN0D SNN1D  RN%D  LN%D  SN%D   HN%D  SDN%D   VN%D LN%RD SN%RD RN%RD  VCN%  VMN% NUPRD NDEMD
   15  77     0     0   7.7  0.00   0.0   2.0  2.02  0.00   0.0   0.0   0.0   0.0   0.00   0.00   0.00     0     0 0.000 0.000 0.000   0.00   1.90   0.00  0.00  0.00  0.00   0.0  0.00  0.00  0.00
   15  78     1     1   6.3  2.65   0.0   2.0  2.02  0.00   0.0   0.0   0.0   0.0   0.00   0.00   0.00     0     0 0.000 0.000 0.000   0.00   1.90   0.00  0.00  0.00  0.00   0.0  0.00  0.00  0.00
   15  79     2     2   5.4  4.83   0.0   2.0  2.02  0.00   0.0   0.0   0.0   0.0   0.00   0.00   0.00     0     0 0.000 0.000 0.000   0.00   1.90   0.00  0.00  0.00  0.00   0.0  0.00  0.00  0.00
   15  80     3     3   5.3  5.99   0.0   2.0  2.02  0.00   0.0   0.0   0.0   0.0   0.00   0.00   0.00     0     0 0.000 0.000 0.000   0.00   1.90   0.00  0.00  0.00  0.00   0.0  0.00  0.00  0.00
   15  81     4     4   4.1  6.77   0.0   2.0  2.02  0.01   0.0   0.0   0.0   0.0   0.00   0.00   0.00     0     0 1.993 0.000 0.000   0.00   1.90   0.00  0.00  0.00  1.00   0.0  0.00  0.00  0.00
   15  82     5     5   2.8  7.21   0.0   2.0  2.02  0.01   0.0   0.0   0.0   0.0   0.00   0.00   0.00     0 .0000 1.989 0.000 0.000   0.00   1.90   0.00  0.00  0.00  1.00   0.0  0.00  0.77  0.00
   15  83     6     6   6.6  8.61   0.0   2.0  2.01  0.02   0.0   0.0   0.0   0.0   0.00   0.00   0.00     0 .0000 1.980 0.000 0.000   0.00   1.90   0.00  0.00  0.00  1.00   0.0  0.00  0.38  0.01
   15  84     7     7   8.9 10.00   0.0   2.0  2.00  0.03   0.0   0.0   0.0   0.0   0.00   0.00   0.00     0 .0000 1.970 0.000 0.000   0.00   1.91   0.00  0.00  0.00  1.00   0.0  0.00  0.38  0.01
   15  85     8     8   6.3 10.10   0.0   2.0  1.70  0.04   0.3   0.2   0.0   0.0   0.00  -0.00   0.00     0 .0000 1.968 6.373 0.000   0.00   1.70   6.40  1.00  0.00  1.00   6.4  0.75  0.02  0.24
   15  86     9     9   6.5 10.21   0.0   2.0  1.39  0.05   0.6   0.4   0.0   0.0   0.00   0.00   0.00     0 .0000 1.967 6.364 0.011   0.00   1.47   5.83  1.00  0.01  1.00   6.4  0.75  0.03  0.25
   15  87    10    10   6.4 10.32   0.0   2.1  1.09  0.06   0.9   0.6   0.0   0.0   0.00   0.00   0.00     0 .0000 1.967 6.367 0.019   0.00   1.21   5.14  1.00  0.01  1.00   6.4  0.75  0.04  0.25
   15  88    11    11   9.5 10.48   0.0   2.1  0.41  0.08   1.6   1.1   0.0   0.0   0.00   0.00   0.00     0 .0001 1.967 6.362 0.012   0.00   0.52   5.08  1.00  0.01  1.00   6.3  0.75  0.02  0.55
   15  89    12    12   6.7 10.59   0.1   2.1  0.08  0.09   1.9   1.3   0.0   0.0   0.00   0.00   0.00     0 .0001 1.965 6.358 0.012   0.00   0.11   4.64  1.00  0.01  1.00   6.3  0.75  0.05  0.28
   15  90    13    13   7.8 10.72   0.1   2.1  0.00  0.12   2.0   1.3   0.0   0.0   0.00   0.00   0.00     0 .0001 1.940 5.782 0.042   0.00   0.00   3.78  0.91  0.02  0.99   6.3  0.75  0.14  0.31
   15  91    14    14   3.3 10.77   0.2   2.2  0.00  0.14   2.0   1.4   0.0   0.0   0.00   0.00   0.00     0 .0001 1.882 5.712 0.141   0.00   0.00   3.50  0.90  0.07  0.96   6.3  0.75  0.55  0.10
   15  92    15    15   3.1 10.82   0.2   2.2  0.00  0.15   2.1   1.4   0.0   0.0   0.00   0.00   0.00     0 .0001 1.840 5.686 0.250   0.00   0.00   3.31  0.90  0.13  0.94   6.3  0.75  0.65  0.09
   15  93    16    16   4.2 10.89   0.3   2.3  0.00  0.17   2.1   1.4   0.0   0.0   0.00   0.00   0.00     0 .0002 1.780 5.532 0.309   0.00   0.00   2.95  0.87  0.16  0.91   6.3  0.75  0.41  0.16
   15  94    17    17   3.6 10.95   0.4   2.4  0.00  0.18   2.2   1.5   0.0   0.0   0.00   0.00   0.00     0 .0002 1.756 5.511 0.418   0.00   0.00   2.84  0.87  0.21  0.89   6.3  0.75  0.66  0.11
   15  95    18    18   2.5 10.99   0.4   2.5  0.00  0.20   2.3   1.5   0.0   0.0   0.00   0.00   0.00     0 .0002 1.782 5.564 0.537   0.00   0.00   2.74  0.88  0.28  0.91   6.3  0.75  1.07  0.07
   15  96    19    19   1.9 11.03   0.5   2.5  0.00  0.21   2.3   1.5   0.0   0.0   0.00   0.00   0.00     0 .0002 1.802 5.610 0.634   0.00   0.00   2.67  0.89  0.33  0.92   6.3  0.75  1.57  0.06
   15  97    20    20   2.9 11.07   0.6   2.6  0.00  0.24   2.4   1.6   0.0   0.0   0.00   0.00   0.00     0 .0002 1.815 5.652 0.751   0.00   0.00   2.55  0.89  0.39  0.92   6.3  0.75  0.95  0.10
   15  98    21    21   6.6 11.18   1.0   3.0  0.00  0.29   2.7   1.8   0.0   0.0   0.00   0.00   0.00     0 .0003 1.845 5.755 1.047   0.00   0.00   2.47  0.91  0.54  0.94   6.3  0.75  1.10  0.38
   15  99    22    22  10.2 11.35   1.4   3.4  0.00  0.33   3.1   2.1   0.0   0.0   0.00   0.00   0.00     0 .0004 1.784 5.232 1.035   0.00   0.00   2.32  0.83  0.54  0.91   6.3  0.74  0.51  0.83
   15 100    23    23  11.4 11.54   1.8   3.8  0.00  0.39   3.4   2.3   0.0   0.0   0.00   0.00   0.00     0 .0006 1.730 4.818 0.984   0.00   0.00   2.16  0.77  0.52  0.88   6.3  0.74  0.45  0.87
   15 101    24    24  11.7 11.74   2.1   4.1  0.00  0.44   3.7   2.5   0.0   0.0   0.00   0.00   0.00     0 .0008 1.694 4.472 0.922   0.00   0.00   2.05  0.71  0.49  0.86   6.2  0.74  0.37  0.83
   15 102    25    25  12.3 11.94   2.3   4.3  0.00  0.47   3.8   2.6   0.0   0.0   0.00   0.00   0.00     0 .0010 1.673 4.239 0.868   0.00   0.00   1.98  0.68  0.47  0.85   6.2  0.74  0.31  0.66
   15 103    26    26  11.9 12.07   2.4   4.4  0.00  0.51   3.9   2.6   0.0   0.0   0.00   0.06   0.00 .0134 .0013 1.658 4.144 0.835   0.00   0.00   1.91  0.67  0.45  0.85   6.2  0.74  0.31  0.41
   15 104    27    27  12.1 12.17   2.5   4.5  0.00  0.54   4.0   2.6   0.0   0.0   0.00   0.06   0.00 .0272 .0015 1.645 4.110 0.834   0.00   0.00   1.84  0.66  0.46  0.84   6.2  0.74  0.27  0.29
   15 105    28    28  14.4 12.29   2.5   4.5  0.00  0.57   4.0   2.6   0.0   0.0   0.00   0.06   0.00 .0412 .0019 1.634 4.054 0.815   0.00   0.00   1.77  0.66  0.45  0.84   6.1  0.74  0.18  0.29
   15 106    29    29  15.7 12.42   2.6   4.6  0.00  0.60   4.0   2.6   0.0   0.0   0.00   0.06   0.00 .0554 .0023 1.625 3.954 0.778   0.00   0.00   1.71  0.64  0.44  0.83   6.1  0.74  0.12  0.35
   15 107    30    30  10.9 12.51   2.8   4.7  0.00  0.63   4.1   2.7   0.0   0.0   0.00   0.06   0.00 .0700 .0026 1.620 4.037 0.856   0.00   0.00   1.71  0.66  0.49  0.83   6.1  0.74  0.63  0.32
   15 108    31    31   5.5 12.56   3.0   4.9  0.00  0.71   4.2   2.8   0.0   0.0   0.00   0.00   0.00 .0700 .0027 1.663 4.168 0.936   0.00   0.00   1.65  0.68  0.54  0.85   6.1  0.74  2.00  0.20
   15 109    32    32   6.4 12.61   3.3   5.3  0.00  0.80   4.5   3.0   0.0   0.0   0.00   0.00   0.00 .0700 .0029 1.703 4.300 1.020   0.00   0.00   1.61  0.70  0.59  0.87   6.0  0.73  2.00  0.31
   15 110    33    33   8.1 12.68   3.7   5.7  0.00  0.91   4.7   3.2   0.0   0.0   0.00   0.00   0.00 .0700 .0032 1.739 4.442 1.118   0.00   0.00   1.58  0.73  0.65  0.89   6.0  0.73  2.00  0.40
   15 111    34    34  10.7 12.77   4.3   6.2  0.00  1.03   5.2   3.5   0.0   0.0   0.00   0.00   0.00 .0700 .0036 1.770 4.600 1.228   0.00   0.00   1.57  0.76  0.73  0.91   6.0  0.73  2.00  0.54
   15 112    35    35  11.2 12.86   4.8   6.8  0.00  1.16   5.6   3.7   0.0   0.0   0.00   0.00   0.00 .0700 .0041 1.795 4.743 1.314   0.00   0.00   1.57  0.79  0.79  0.92   6.0  0.73  2.00  0.58
   15 113    36    36   6.1 12.91   5.1   7.1  0.00  1.27   5.8   3.9   0.0   0.0   0.00   0.00   0.00 .0700 .0043 1.814 4.829 1.349   0.00   0.00   1.51  0.80  0.81  0.93   6.0  0.73  2.00  0.32
   15 114    37    37   8.8 12.99   5.6   7.6  0.00  1.41   6.1   4.1   0.0   0.0   0.00   0.00   0.00 .0700 .0048 1.832 4.927 1.393   0.00   0.00   1.46  0.82  0.85  0.94   5.9  0.73  1.35  0.47
   15 115    38    38  11.4 13.08   6.1   8.1  0.00  1.53   6.5   4.4   0.0   0.0   0.00   0.00   0.00 .0700 .0054 1.817 4.969 1.396   0.00   0.00   1.44  0.83  0.86  0.94   5.9  0.73  0.82  0.61
   15 116    39    39  15.1 13.21   6.9   8.8  0.00  1.64   7.2   4.8   0.0   0.0   0.00   0.00   0.00 .0700 .0063 1.823 5.060 1.428   0.00   0.00   1.48  0.85  0.89  0.94   5.9  0.73  0.94  0.80
   15 117    40    40  14.5 13.33   7.7   9.6  0.00  1.80   7.8   5.2   0.1   0.0   0.00   0.00   0.00 .0700 .0073 1.838 5.161 1.462   0.00   0.00   1.49  0.87  0.93  0.95   5.8  0.72  1.35  0.83
   15 118    41    41   8.3 13.40   8.2  10.1  0.00  1.93   8.2   5.4   0.1   0.0   0.00   0.00   0.00 .0700 .0079 1.848 5.222 1.475   0.00   0.00   1.47  0.88  0.95  0.96   5.8  0.72  2.00  0.47
   15 119    42    42   7.0 13.45   8.6  10.5  0.00  2.09   8.4   5.6   0.1   0.0   0.00   0.00   0.00 .0700 .0084 1.859 5.270 1.483   0.00   0.00   1.41  0.89  0.96  0.96   5.8  0.72  2.00  0.42
   15 120    43    43  10.4 13.54   9.2  11.2  0.00  2.23   8.9   5.9   0.1   0.0   0.00   0.00   0.00 .0700 .0092 1.867 5.328 1.492   0.00   0.00   1.40  0.91  0.98  0.97   5.7  0.72  2.00  0.65
   15 121    44    44   8.6 13.61   9.7  11.6  0.00  2.30   9.3   6.2   0.1   0.0   0.00   0.00   0.00 .0700 .0100 1.872 5.372 1.495   0.00   0.00   1.42  0.92  1.00  0.97   5.7  0.72  2.00  0.45
   15 122    45    45  10.5 13.70  10.3  12.3  0.00  2.43   9.8   6.5   0.1   0.0   0.00   0.00   0.00 .0700 .0109 1.878 5.416 1.481   0.00   0.00   1.42  0.93  1.00  0.97   5.7  0.72  2.00  0.64
   15 123    46    46  13.2 13.81  11.1  13.0  0.00  2.56  10.5   6.9   0.1   0.0   0.00   0.00   0.00 .0700 .0121 1.883 5.457 1.455   0.00   0.00   1.43  0.94  1.00  0.98   5.6  0.72  2.00  0.77
   15 124    47    47  17.5 13.96  12.1  14.0  0.00  2.70  11.3   7.5   0.1   0.0   0.00   0.00   0.00 .0700 .0138 1.888 5.496 1.421   0.00   0.00   1.47  0.95  1.00  0.98   5.6  0.72  2.00  0.97
   15 125    48    48  19.4 14.12  13.3  15.2  0.00  2.91  12.3   8.1   0.1   0.0   0.00  -0.00   0.00 .0700 .0158 1.892 5.528 1.382   0.00   0.00   1.47  0.97  1.00  0.99   5.5  0.71  2.00  1.20
   15 126    49    49  11.6 14.21  14.0  15.9  0.00  3.07  12.9   8.4   0.1   0.0   0.00   0.19   0.00 0.099 .0171 1.895 5.546 1.359   0.00   0.00   1.47  0.97  1.00  0.99   5.5  0.71  2.00  0.78
   15 127    50    50  13.0 14.32  14.7  16.6  0.00  3.27  13.3   8.7   0.2   0.0   0.00   0.22   0.00 0.132 .0186 1.898 5.561 1.333   0.00   0.00   1.42  0.98  1.00  0.99   5.5  0.71  2.00  0.71
   15 128    51    51  15.5 14.45  15.6  17.4  0.00  3.51  13.9   9.0   0.2   0.0   0.00   0.26   0.00 0.171 .0205 1.901 5.572 1.302   0.00   0.00   1.38  0.99  1.00  0.99   5.4  0.71  2.00  0.85
   15 129    52    52  14.2 14.57  16.3  18.0  0.00  3.68  14.4   9.3   0.2   0.0   0.00   0.24   0.00 0.207 .0224 1.902 5.578 1.273   0.00   0.00   1.35  1.00  1.00  0.99   5.4  0.71  2.00  0.67
   15 130    53    53  13.2 14.68  16.9  18.7  0.00  3.91  14.8   9.6   0.2   0.0   0.00   0.23   0.00 0.240 .0242 1.904 5.571 1.246   0.00   0.00   1.31  1.00  1.00  1.00   5.3  0.70  2.00  0.69
   15 131    54    54  13.7 14.79  17.7  19.5  0.00  4.19  15.3   9.9   0.2   0.0   0.00   0.24   0.00 0.275 .0262 1.905 5.540 1.218   0.00   0.00   1.25  1.00  1.00  1.00   5.3  0.70  2.00  0.79
   15 132    55    55  18.0 14.94  18.8  20.4  0.00  4.50  15.9  10.4   0.3   0.0   0.00   0.19   0.00 0.303 .0290 1.904 5.499 1.181   0.00   0.00   1.21  1.00  1.00  1.00   5.2  0.70  2.00  1.02
   15 133    56    56  17.8 15.09  20.1  21.8  0.00  4.71  17.1  11.2   0.3   0.0   0.00   0.00   0.00 0.303 .0320 1.902 5.459 1.145   0.00   0.00   1.23  1.00  1.00  1.00   5.1  0.70  1.50  1.34
   15 134    57    57  15.0 15.22  21.7  23.3  0.00  4.91  18.4  11.9   0.3   0.0   0.00   0.32   0.00 0.350 .0346 1.899 5.425 1.113   0.00   0.00   1.26  1.00  1.00  1.00   5.1  0.69  1.96  1.56
   15 135    58    58  11.4 15.31  22.6  24.2  0.00  5.12  19.1  12.4   0.3   0.0   0.00   0.24   0.00 0.386 .0367 1.897 5.398 1.090   0.00   0.00   1.25  1.00  1.00  1.00   5.0  0.69  2.00  0.96
   15 136    59    59  12.8 15.42  23.9  25.5  0.00  5.43  20.1  13.0   0.4   0.0   0.00   0.27   0.00 0.427 .0392 1.895 5.369 1.063   0.00   0.00   1.23  1.00  1.00  1.00   5.0  0.69  1.79  1.32
   15 137    60    60  14.1 15.54  25.3  26.8  0.00  5.65  21.2  13.7   0.4   0.0   0.00   0.30   0.00 0.472 .0420 1.893 5.336 1.033   0.00   0.00   1.24  1.00  1.00  1.00   4.9  0.69  1.42  1.38
   15 138    61    61  15.4 15.66  27.0  28.4  0.00  5.99  22.4  14.5   0.5   0.0   0.00   0.32   0.00 0.520 .0453 1.890 5.301 1.001   0.00   0.00   1.22  1.00  1.00  1.00   4.9  0.69  1.13  1.64
   15 139    62    62  13.9 15.78  28.4  29.8  0.00  6.24  23.5  15.2   0.5   0.0   0.00   0.29   0.00 0.565 .0484 1.887 5.248 0.992   0.00   0.00   1.22  1.00  1.00  1.00   4.8  0.68  1.18  1.38
   15 140    63    63   8.4 15.85  28.8  30.2  0.00  6.40  23.8  15.6   0.5   0.0   0.00   0.05   0.00 0.573 .0503 1.885 5.211 0.986   0.00   0.00   1.20  1.00  1.00  1.00   4.8  0.68  2.00  0.46
   15 141    64    64   9.8 15.93  29.9  31.3  0.00  6.61  24.7  16.1   0.6   0.0   0.00   0.06   0.00 0.583 .0527 1.883 5.169 0.980   0.00   0.00   1.20  1.00  1.00  1.00   4.7  0.68  2.00  1.12
   15 142    65    65   9.9 16.01  31.2  32.6  0.00  6.92  25.7  16.8   0.6   0.0   0.00   0.06   0.00 0.592 .0551 1.881 5.126 0.973   0.00   0.00   1.18  1.00  1.00  1.00   4.7  0.68  1.72  1.30
   15 143    66    66  11.7 16.11  33.4  34.8  0.00  7.22  27.6  18.0   0.7   0.0   0.00   0.07   0.00 0.604 .0581 1.878 5.076 0.965   0.00   0.00   1.20  1.00  1.00  1.00   4.6  0.67  1.12  2.19
   15 144    67    67  12.1 16.21  35.5  36.8  0.00  7.46  29.3  19.1   0.8   0.0   0.00   0.08   0.00 0.616 .0614 1.875 5.023 0.957   0.00   0.00   1.23  1.00  1.00  1.00   4.5  0.67  0.95  2.13
   15 145    68    68  14.6 30.15  37.3  38.6  0.00  7.69  30.9  20.1   0.8   0.0   0.00   0.09   0.00 0.631 .0654 1.856 4.906 0.925   0.00   0.00   1.23  0.99  0.98  0.99   4.4  0.67  0.69  2.66
   15 146    69    69  11.6 30.67  38.7  40.1  0.00  7.90  32.1  20.9   0.9   0.0   0.00   0.07   0.00 0.642 .0688 1.840 4.802 0.892   0.00   0.00   1.23  0.98  0.95  0.98   4.4  0.66  0.64  2.28
   15 147    70    70   9.2 31.08  40.0  41.3  0.00  8.15  33.2  21.5   1.0   0.0   0.00   0.06   0.00 0.651 .0715 1.822 4.751 0.874   0.00   0.00   1.21  0.98  0.94  0.98   4.3  0.66  0.71  1.82
   15 148    71    71  11.9 31.61  41.4  42.7  0.00  8.48  34.2  22.2   1.1   0.0   0.00   0.07   0.00 0.663 .0752 1.801 4.626 0.829   0.00   0.00   1.17  0.96  0.90  0.97   4.2  0.66  0.54  2.53
   15 149    72    72  15.6 32.30  42.5  43.8  0.00  8.80  35.0  22.6   1.1   0.0   0.00   0.09   0.00 0.679 .0804 1.782 4.420 0.759   0.00   0.00   1.13  0.93  0.83  0.96   4.1  0.65  0.36  3.11
   15 150    73    73  14.9 32.97  43.5  44.7  0.00  9.01  35.7  23.1   1.2   0.0   0.00   0.08   0.00 0.694 .0855 1.770 4.261 0.724   0.00   0.00   1.12  0.91  0.80  0.95   4.1  0.65  0.36  2.74
   15 151    74    74  15.4 33.65  44.2  45.5  0.00  9.28  36.2  23.4   1.2   0.0   0.00   0.08   0.00 0.709 .0909 1.756 4.082 0.670   0.00   0.00   1.08  0.88  0.75  0.95   4.0  0.65  0.26  2.90
   15 152    75    75  19.0 34.50  44.9  46.1  0.00  9.58  36.6  23.6   1.2   0.0   0.00   0.10   0.00 0.728 .0979 1.741 3.758 0.610   0.00   0.00   1.04  0.83  0.69  0.94   3.9  0.64  0.15  4.76
   15 153    76    76  19.8 35.37  45.6  46.8  0.00  9.84  37.0  23.9   1.2   0.0   0.00   0.09   0.00 0.747 0.105 1.729 3.489 0.565   0.00   0.00   1.02  0.78  0.65  0.94   3.8  0.64  0.15  4.79
   15 154    77    77  20.5 36.28  46.2  47.4  0.00 10.14  37.3  24.1   1.3   0.0   0.00   0.09   0.00 0.767 0.113 1.716 3.265 0.519   0.00   0.00   0.98  0.75  0.61  0.93   3.7  0.64  0.13  4.69
   15 155    78    78  19.7 37.16  46.9  48.0  0.00 10.40  37.6  24.3   1.3   0.0   0.00   0.08   0.00 0.787 0.121 1.706 3.089 0.484   0.00   0.00   0.96  0.72  0.57  0.93   3.6  0.63  0.14  4.46
   15 156    79    79  21.8 38.12  47.4  48.5  0.00 10.65  37.9  24.4   1.3   0.0   0.00   0.08   0.00 0.808 0.130 1.696 2.941 0.454   0.00   0.00   0.93  0.70  0.55  0.93   3.6  0.63  0.13  4.26
   15 157    80    80  21.8 39.09  47.8  48.9  0.00 10.92  38.0  24.5   1.3   0.0   0.00   0.07   0.00 0.829 0.140 1.686 2.799 0.421   0.00   0.00   0.90  0.68  0.52  0.92   3.5  0.62  0.10  4.32
   15 158    81    81  21.5 40.04  50.3  51.3  0.00 11.13  40.2  25.9   1.4   0.0   0.00   0.07   0.00 0.850 0.149 1.678 2.747 0.424   0.00   0.00   0.93  0.69  0.53  0.92   3.4  0.62  0.44  5.65
   15 159    82    82  16.1 40.71  51.0  52.0  0.00 11.31  40.7  26.0   1.6   0.0   0.00   0.20   0.06 0.850 0.157 1.672 2.775 0.425   0.00   0.00   0.92  0.71  0.54  0.92   3.3  0.61  0.46  1.48
   15 160    83    83  12.3 41.23  52.0  53.0  0.00 11.48  41.5  26.4   1.8   0.0   0.00   0.15   0.11 0.850 0.162 1.681 2.833 0.462   0.00   0.00   0.93  0.73  0.60  0.93   3.2  0.61  2.00  1.03
   15 161    84    84  14.7 41.84  53.3  54.3  0.00 11.76  42.5  26.8   2.2   0.0   0.00   0.19   0.16 0.850 0.169 1.690 2.886 0.505   0.00   0.00   0.93  0.75  0.66  0.93   3.1  0.60  2.00  1.24
   15 162    85    85  18.3 42.60  54.4  55.4  0.00 12.05  43.4  27.0   2.6   0.0   0.00   0.24   0.23 0.850 0.178 1.699 2.933 0.541   0.00   0.00   0.93  0.78  0.72  0.94   3.0  0.60  2.00  1.17
   15 163    86    86  20.9 43.47  55.7  56.7  0.00 12.44  44.3  27.1   3.2   0.0   0.00   0.28   0.31 0.850 0.188 1.707 2.975 0.576   0.00   0.00   0.91  0.81  0.79  0.95   2.8  0.59  2.00  1.28
   15 164    87    87  20.1 44.31  56.7  57.7  0.00 12.76  44.9  27.2   3.7   0.0   0.00   0.28   0.39 0.850 0.198 1.715 3.011 0.597   0.00   0.00   0.90  0.83  0.84  0.95   2.7  0.58  2.00  1.00
   15 165    88    88  20.1 45.15  57.6  58.6  0.00 13.05  45.5  27.2   4.1   0.0   0.00   0.28   0.46 0.850 0.208 1.721 3.041 0.613   0.00   0.00   0.88  0.86  0.88  0.96   2.6  0.57  2.00  0.88
   15 166    89    89  15.1 45.78  58.1  59.0  0.00 13.22  45.8  27.3   4.4   0.0   0.00   0.21   0.52 0.850 0.215 1.725 3.065 0.621   0.00   0.00   0.88  0.88  0.91  0.96   2.5  0.57  2.00  0.49
   15 167    90    90  15.2 46.41  58.8  59.8  0.00 13.48  46.3  27.3   4.8   0.0   0.00   0.22   0.57 0.850 0.223 1.730 3.086 0.629   0.00   0.00   0.86  0.90  0.94  0.97   2.4  0.56  2.00  0.73
   15 168    91    91  14.8 47.03  59.5  60.5  0.00 13.75  46.7  27.2   5.2   0.0   0.00   0.21   0.62 0.850 0.231 1.734 3.103 0.634   0.00   0.00   0.85  0.92  0.96  0.97   2.3  0.56  2.00  0.73
   15 169    92    92  13.2 47.58  60.2  61.1  0.00 13.99  47.1  27.2   5.6   0.0   0.00   0.19   0.67 0.850 0.238 1.738 3.116 0.637   0.00   0.00   0.83  0.94  0.98  0.98   2.2  0.55  2.00  0.62
   15 170    93    93  13.2 48.13  60.6  61.5  0.00 14.18  47.4  27.1   6.0   0.0   0.00   0.19   0.72 0.850 0.245 1.741 3.126 0.637   0.00   0.00   0.82  0.96  1.00  0.98   2.2  0.55  2.00  0.45
   15 171    94    94  12.2 48.64  61.1  62.0  0.00 14.38  47.6  27.0   6.3   0.0   0.00   0.18   0.76 0.850 0.252 1.743 3.133 0.627   0.00   0.00   0.80  0.97  1.00  0.98   2.1  0.54  2.00  0.45
   15 172    95    95  13.6 49.20  61.5  62.4  0.00 14.61  47.8  26.9   6.6   0.0   0.00   0.20   0.81 0.850 0.259 1.746 3.138 0.616   0.00   0.00   0.78  0.99  1.00  0.98   2.0  0.54  2.00  0.43
   15 173    96    96  16.2 49.88  61.9  62.8  0.00 14.83  47.9  26.7   6.9   0.0   0.00   0.24   0.87 0.850 0.268 1.748 3.111 0.602   0.00   0.00   0.76  1.00  1.00  0.99   1.9  0.53  2.00  0.37
   15 174    97    97  13.1 51.70  61.9  62.8  0.00 15.02  47.7  26.3   7.2   0.0   0.00   0.36   0.92 0.850 0.276 1.750 3.083 0.596   0.00   0.00   0.74  1.00  1.00  0.99   1.9  0.53  2.00  0.00
   15 175    98    98  13.9 54.02  61.9  62.7  0.00 15.25  47.5  25.9   7.6   0.0   0.00   0.23   0.96 0.850 0.283 1.751 3.060 0.590   0.00   0.00   0.71  1.00  1.00  0.99   1.8  0.52  2.00  0.00
   15 176    99    99  13.8 56.33  62.1  62.9  0.00 15.48  47.5  25.6   8.1   0.0   0.00   0.18   1.00 0.850 0.291 1.752 3.037 0.584   0.00   0.00   0.69  1.00  1.00  0.99   1.8  0.52  2.00  0.21
   15 177   100   100  16.5 59.08  62.3  63.2  0.00 15.68  47.5  25.2   8.6   0.0   0.00   0.21   1.06 0.850 0.301 1.753 3.009 0.577   0.00   0.00   0.66  1.00  1.00  1.00   1.7  0.51  2.00  0.25
   15 178   101   101  18.4 65.34  62.3  63.2  0.00 15.80  47.4  24.8   8.9   0.0   0.00   0.31   1.11 0.850 0.312 1.754 2.979 0.570   0.00   0.00   0.65  1.00  1.00  1.00   1.6  0.51  2.00  0.00
   15 179   102   102  17.9 70.43  62.3  63.2  0.00 15.89  47.3  24.4   9.3   0.0   0.00   0.47   1.17 0.850 0.323 1.755 2.949 0.562   0.00   0.00   0.63  1.00  1.00  1.00   1.6  0.50  2.00  0.00
   15 180   103   103  18.9 71.64  62.3  63.2  0.00 15.96  47.2  23.9   9.7   0.1   0.00   0.45   1.23 0.850 0.334 1.752 2.917 0.554   2.00   0.00   0.61  1.00  1.00  1.00   1.5  0.50  2.00  0.00
   15 181   104   104  20.6 72.96  62.3  63.1  0.00 15.97  47.2  23.5   9.5   0.7   0.01   0.64   1.29 0.850 0.346 1.748 2.883 0.546   2.00   0.00   0.58  1.00  1.00  1.00   1.5  0.50  2.00  0.00
   15 182   105   105  21.0 74.31  62.3  63.1  0.00 15.98  47.2  23.0   9.4   1.7   0.04   0.41   1.36 0.850 0.359 1.745 2.848 0.537   2.00   0.00   0.55  1.00  1.00  1.00   1.5  0.49  2.00  0.00
   15 183   106   106  22.2 75.73  62.9  63.7  0.00 15.99  47.7  22.5   9.2   3.3   0.07   0.26   1.43 0.850 0.372 1.741 2.811 0.528   2.00   0.00   0.53  1.00  1.00  1.00   1.5  0.49  2.00  0.61
   15 184   107   107  23.0 77.21  64.3  65.0  0.00 15.99  49.1  21.9   9.1   5.4   0.11   0.27   1.50 0.850 0.386 1.737 2.773 0.518   2.00   0.00   0.51  1.00  1.00  1.00   1.4  0.49  1.72  1.33
   15 185   108   108  24.6 78.78  65.8  66.6  0.00 15.52  51.1  21.4   8.9   8.4   0.16   0.28   1.58 0.850 0.400 1.686 2.732 0.508   2.00   0.00   0.49  1.00  1.00  0.97   1.4  0.48  0.77  2.04
   15 186   109   109  25.5 80.09  66.9  67.7  0.00 14.78  52.9  20.3   8.7  12.0   0.23   0.29   1.66 0.850 0.415 1.603 2.657 0.499   2.00   0.00   0.47  0.99  1.00  0.93   1.4  0.48  0.39  2.82
   15 187   110   110  23.2 80.42  67.7  68.5  0.00 14.19  54.3  18.9   8.5  15.9   0.29   0.08   1.68 0.850 0.429 1.537 2.481 0.491   2.00   0.00   0.44  0.94  0.99  0.89   1.4  0.48  0.22  3.61
   15 188   111   111  25.1 80.78  68.3  69.1  0.00 13.72  55.4  16.5   8.2  20.1   0.36   0.50   1.84 0.850 0.444 1.485 2.227 0.478   2.00   0.00   0.41  0.85  0.97  0.86   1.3  0.48  0.14  4.33
   15 189   112   112  17.4 81.03  71.1  71.8  0.00 13.85  58.0  16.6   8.3  23.0   0.40   0.05   1.86 0.850 0.454 1.498 2.246 0.479   2.00   0.00   0.41  0.87  0.98  0.87   1.3  0.48  1.39  2.76
   15 190   113   113  13.9 81.23  73.4  74.1  0.00 13.98  60.1  16.7   8.3  25.0   0.42   0.04   1.88 0.850 0.463 1.510 2.262 0.480   2.00   0.00   0.40  0.89  0.98  0.88   1.3  0.48  2.00  2.30
   15 191   114   114  14.9 81.44  76.0  76.7  0.00 14.11  62.6  16.8   8.3  27.3   0.44   0.04   1.89 0.850 0.472 1.521 2.277 0.480   2.00   0.00   0.40  0.90  0.99  0.88   1.3  0.48  1.12  2.57
   15 192   115   115  18.3 81.70  76.6  77.3  0.00 13.67  63.6  15.2   8.1  30.4   0.48   0.42   2.04 0.850 0.482 1.472 2.105 0.472   2.00   0.00   0.38  0.84  0.98  0.85   1.3  0.48  0.18  3.27
   15 193   116   116  20.5 82.00  77.1  77.7  0.00 13.31  64.4  13.5   8.0  33.8   0.52   0.37   2.19 0.850 0.495 1.433 1.913 0.463   2.00   0.00   0.35  0.78  0.96  0.83   1.2  0.48  0.14  3.35
   15 194   117   117  18.4 82.26  77.5  78.1  0.00 13.02  65.1  12.2   7.8  36.9   0.57   0.04   2.21 0.850 0.506 1.402 1.734 0.454   2.00   0.00   0.33  0.71  0.95  0.82   1.2  0.48  0.13  3.15
   15 195   118   118  20.6 82.55  77.8  78.5  0.00 12.79  65.7  10.3   7.6  40.0   0.61   0.28   2.35 0.850 0.518 1.377 1.507 0.443   1.98   0.00   0.30  0.63  0.93  0.80   1.2  0.47  0.09  3.94
   15 196   119   119  21.7 82.86  78.1  78.7  0.00 12.60  66.1   8.9   7.5  42.7   0.65   0.22   2.50 0.850 0.531 1.357 1.326 0.435   1.94   0.00   0.28  0.56  0.92  0.79   1.2  0.47  0.07  3.99
   15 197   120   120  22.4 83.18  78.4  79.0  0.00 12.44  66.5   7.7   7.4  44.9   0.67   0.17   2.64 0.850 0.544 1.342 1.181 0.428   1.88   0.00   0.26  0.51  0.91  0.78   1.1  0.47  0.06  4.22
   15 198   121   121  24.6 83.53  78.6  79.2  0.00 12.32  66.9   6.7   7.3  46.5   0.70   0.25   2.90 0.850 0.559 1.329 1.065 0.422   1.80   0.00   0.25  0.47  0.91  0.78   1.1  0.47  0.05  4.68
   15 199   122   122  22.0 83.85  78.8  79.4  0.00 12.21  67.2   5.8   7.2  48.0   0.71   0.19   3.14 0.850 0.572 1.319 0.972 0.418   1.73   0.00   0.24  0.43  0.91  0.77   1.1  0.47  0.05  4.17
   15 200   123   123  22.4 84.17  79.0  79.6  0.00 12.12  67.4   5.1   7.1  49.1   0.73   0.15   3.38 0.850 0.585 1.311 0.897 0.414   1.66   0.00   0.24  0.41  0.90  0.77   1.0  0.47  0.04  4.31
   15 201   124   124  23.3 84.50  79.1  79.7  0.00 12.05  67.7   4.6   7.1  50.0   0.74   0.11   3.60 0.850 0.599 1.304 0.838 0.411   1.59   0.00   0.24  0.39  0.90  0.76   1.0  0.46  0.04  4.50
   15 202   125   125  24.2 84.85  79.3  79.9  0.00 11.98  67.9   4.1   7.0  50.8   0.75   0.09   3.82 0.850 0.613 1.298 0.790 0.409   1.51   0.00   0.23  0.37  0.91  0.76   1.0  0.46  0.03  4.68
   15 203   126   126  25.0 85.20  79.4  80.0  0.00 11.93  68.0   3.7   7.0  51.3   0.75   0.07   4.03 0.850 0.628 1.294 0.752 0.407   1.44   0.00   0.24  0.36  0.91  0.76   0.9  0.46  0.03  4.80
   15 204   127   127  21.4 85.51  79.6  80.1  0.00 11.88  68.2   3.4   7.0  51.8   0.76   0.05   4.23 0.850 0.640 1.290 0.722 0.406   1.38   0.00   0.24  0.35  0.91  0.76   0.9  0.46  0.03  4.20
   15 205   128   128  22.0 85.82  79.7  80.2  0.00 11.83  68.4   3.2   7.0  52.2   0.76   0.04   4.43 0.850 0.653 1.286 0.697 0.405   1.33   0.00   0.24  0.35  0.92  0.76   0.9  0.46  0.03  4.29
   15 206   129   129  18.8 86.09  79.8  80.3  0.00 11.80  68.5   2.9   7.0  52.5   0.77   0.03   4.61 0.850 0.664 1.284 0.678 0.404   1.29   0.00   0.24  0.34  0.92  0.76   0.9  0.45  0.03  3.75
   15 207   130   130  15.6 86.31  79.9  80.4  0.00 11.77  68.6   2.7   6.9  52.8   0.77   0.02   4.78 0.850 0.673 1.281 0.662 0.403   1.25   0.00   0.24  0.34  0.92  0.75   0.8  0.45  0.03  3.12
   15 208   131   131  18.3 86.58  80.0  80.5  0.00 11.74  68.8   2.6   6.9  53.0   0.77   0.02   4.94 0.850 0.684 1.279 0.650 0.402   1.22   0.00   0.25  0.34  0.93  0.75   0.8  0.45  0.03  3.64
   15 209   132   132  17.5 86.82  82.0  82.5  0.00 11.71  70.8   2.5   6.9  55.2   0.78   0.01   5.03 0.850 0.694 1.277 0.640 0.402   1.22   0.00   0.25  0.34  0.93  0.75   0.8  0.45  0.59  3.48
   15 210   133   133  15.0 87.04  82.4  82.8  0.00 11.69  71.1   2.3   6.9  55.5   0.78   0.01   5.18 0.850 0.703 1.276 0.632 0.402   1.20   0.00   0.26  0.34  0.93  0.75   0.8  0.45  0.11  2.90
   15 211   134   134  14.6 87.25  82.7  83.2  0.00 11.67  71.5   2.1   6.9  56.0   0.78   0.01   5.44 0.850 0.711 1.274 0.626 0.401   1.18   0.00   0.26  0.34  0.94  0.75   0.7  0.45  0.14  2.76
   15 212   135   135  16.4 87.48  82.8  83.3  0.00 11.65  71.6   2.0   6.9  56.1   0.78   0.01   5.67 0.850 0.721 1.273 0.620 0.401   1.15   0.00   0.27  0.34  0.94  0.75   0.7  0.44  0.03  3.22
   15 213   136   136  17.0 87.72  82.9  83.3  0.00 11.63  71.7   1.8   6.9  56.2   0.78   0.01   5.91 0.850 0.731 1.272 0.616 0.401   1.12   0.00   0.27  0.35  0.95  0.75   0.7  0.44  0.02  3.29
   15 214   137   137  19.0 88.00  83.0  83.4  0.00 11.61  71.8   1.6   6.9  56.4   0.78   0.01   6.15 0.850 0.742 1.271 0.613 0.401   1.09   0.00   0.28  0.35  0.95  0.75   0.7  0.44  0.02  3.60
   15 215   138   138  19.8 88.28  83.1  83.5  0.00 11.59  71.9   1.4   6.9  56.5   0.79   0.01   6.39 0.850 0.753 1.270 0.610 0.400   1.06   0.00   0.29  0.36  0.96  0.75   0.6  0.43  0.02  3.70
   15 216   139   139  21.9 88.59  83.1  83.5  0.00 11.56  72.0   1.3   6.9  56.6   0.79   0.00   6.67 0.850 0.766 1.269 0.608 0.400   1.02   0.00   0.30  0.36  0.97  0.75   0.6  0.43  0.02  4.02
   15 217   140   140  21.8 88.90  83.2  83.6  0.00 11.54  72.1   1.1   6.8  56.6   0.79   0.00   6.96 0.850 0.778 1.268 0.607 0.400   0.99   0.00   0.31  0.37  0.97  0.75   0.6  0.43  0.02  3.97
   15 218   141   141  23.4 89.24  83.3  83.7  0.00 11.52  72.1   0.9   6.8  56.7   0.79   0.00   7.24 0.850 0.792 1.267 0.605 0.400   0.96   0.00   0.32  0.38  0.98  0.75   0.5  0.42  0.02  4.22
   15 219   142   142  24.8 89.59  83.3  83.7  0.00 11.50  72.2   0.8   6.7  56.8   0.79   0.00   7.52 0.850 0.806 1.266 0.602 0.400   0.93   0.00   0.34  0.39  0.99  0.75   0.5  0.42  0.01  4.42
   15 220   143   143  25.2 89.95  83.4  83.7  0.00 11.47  72.3   0.6   6.7  56.9   0.79   0.00   7.81 0.850 0.820 1.265 0.600 0.400   0.90   0.00   0.35  0.40  1.00  0.75   0.5  0.42  0.01  4.46
   15 221   144   144  24.7 91.05  83.5  83.8  0.00 11.45  72.3   0.4   6.6  57.0   0.79   0.00   8.08 0.850 0.835 1.264 0.600 0.400   0.89   0.00   0.36  0.41  1.00  0.75   0.5  0.41  0.01  4.36

*DSSAT Cropping System Model Ver. 4.8.5.000 -release  OCT 24, 2025 14:14:59

*RUN   2        : 2                         CSCER048 TUDU1501    2
 MODEL          : CSCER048 - Wheat
 EXPERIMENT     : TUDU1501 WH
 DATA PATH      :
 TREATMENT  2   : 2                         CSCER048
  
@YEAR DOY   DAS   DAP TMEAN  GSTD  NUAC  TNAD SDNAD  RNAD  CNAD  LNAD  SNAD  HNAD   HIND  RSNAD  SNNPD SNN0D SNN1D  RN%D  LN%D  SN%D   HN%D  SDN%D   VN%D LN%RD SN%RD RN%RD  VCN%  VMN% NUPRD NDEMD
   15  77     0     0   7.7  0.00   0.0   2.0  2.02  0.00   0.0   0.0   0.0   0.0   0.00   0.00   0.00     0     0 0.000 0.000 0.000   0.00   1.90   0.00  0.00  0.00  0.00   0.0  0.00  0.00  0.00
   15  78     1     1   6.3  2.65   0.0   2.0  2.02  0.00   0.0   0.0   0.0   0.0   0.00   0.00   0.00     0     0 0.000 0.000 0.000   0.00   1.90   0.00  0.00  0.00  0.00   0.0  0.00  0.00  0.00
   15  79     2     2   5.4  4.83   0.0   2.0  2.02  0.00   0.0   0.0   0.0   0.0   0.00   0.00   0.00     0     0 0.000 0.000 0.000   0.00   1.90   0.00  0.00  0.00  0.00   0.0  0.00  0.00  0.00
   15  80     3     3   5.3  5.99   0.0   2.0  2.02  0.00   0.0   0.0   0.0   0.0   0.00   0.00   0.00     0     0 0.000 0.000 0.000   0.00   1.90   0.00  0.00  0.00  0.00   0.0  0.00  0.00  0.00
   15  81     4     4   4.1  6.77   0.0   2.0  2.02  0.01   0.0   0.0   0.0   0.0   0.00   0.00   0.00     0     0 1.993 0.000 0.000   0.00   1.90   0.00  0.00  0.00  1.00   0.0  0.00  0.00  0.00
   15  82     5     5   2.8  7.21   0.0   2.0  2.02  0.01   0.0   0.0   0.0   0.0   0.00   0.00   0.00     0 .0000 1.989 0.000 0.000   0.00   1.90   0.00  0.00  0.00  1.00   0.0  0.00  0.77  0.00
   15  83     6     6   6.6  8.61   0.0   2.0  2.01  0.02   0.0   0.0   0.0   0.0   0.00   0.00   0.00     0 .0000 1.980 0.000 0.000   0.00   1.90   0.00  0.00  0.00  1.00   0.0  0.00  0.38  0.01
   15  84     7     7   8.9 10.00   0.0   2.0  2.00  0.03   0.0   0.0   0.0   0.0   0.00   0.00   0.00     0 .0000 1.970 0.000 0.000   0.00   1.91   0.00  0.00  0.00  1.00   0.0  0.00  0.38  0.01
   15  85     8     8   6.3 10.10   0.0   2.0  1.70  0.04   0.3   0.2   0.0   0.0   0.00  -0.00   0.00     0 .0000 1.968 6.373 0.000   0.00   1.70   6.40  1.00  0.00  1.00   6.4  0.75  0.02  0.24
   15  86     9     9   6.5 10.21   0.0   2.0  1.39  0.05   0.6   0.4   0.0   0.0   0.00   0.00   0.00     0 .0000 1.967 6.364 0.011   0.00   1.47   5.83  1.00  0.01  1.00   6.4  0.75  0.03  0.25
   15  87    10    10   6.4 10.32   0.0   2.1  1.09  0.06   0.9   0.6   0.0   0.0   0.00   0.00   0.00     0 .0000 1.967 6.367 0.019   0.00   1.21   5.14  1.00  0.01  1.00   6.4  0.75  0.04  0.25
   15  88    11    11   9.5 10.48   0.0   2.1  0.41  0.08   1.6   1.1   0.0   0.0   0.00   0.00   0.00     0 .0001 1.967 6.362 0.012   0.00   0.52   5.08  1.00  0.01  1.00   6.3  0.75  0.02  0.55
   15  89    12    12   6.7 10.59   0.1   2.1  0.08  0.09   1.9   1.3   0.0   0.0   0.00   0.00   0.00     0 .0001 1.965 6.358 0.012   0.00   0.11   4.64  1.00  0.01  1.00   6.3  0.75  0.05  0.28
   15  90    13    13   7.8 10.72   0.1   2.1  0.00  0.12   2.0   1.3   0.0   0.0   0.00   0.00   0.00     0 .0001 1.940 5.782 0.042   0.00   0.00   3.78  0.91  0.02  0.99   6.3  0.75  0.14  0.31
   15  91    14    14   3.3 10.77   0.2   2.2  0.00  0.14   2.0   1.4   0.0   0.0   0.00   0.00   0.00     0 .0001 1.882 5.712 0.141   0.00   0.00   3.50  0.90  0.07  0.96   6.3  0.75  0.55  0.10
   15  92    15    15   3.1 10.82   0.2   2.2  0.00  0.15   2.1   1.4   0.0   0.0   0.00   0.00   0.00     0 .0001 1.840 5.686 0.250   0.00   0.00   3.31  0.90  0.13  0.94   6.3  0.75  0.65  0.09
   15  93    16    16   4.2 10.89   0.3   2.3  0.00  0.17   2.1   1.4   0.0   0.0   0.00   0.00   0.00     0 .0002 1.780 5.532 0.309   0.00   0.00   2.95  0.87  0.16  0.91   6.3  0.75  0.41  0.16
   15  94    17    17   3.6 10.95   0.4   2.4  0.00  0.18   2.2   1.5   0.0   0.0   0.00   0.00   0.00     0 .0002 1.756 5.511 0.418   0.00   0.00   2.84  0.87  0.21  0.89   6.3  0.75  0.66  0.11
   15  95    18    18   2.5 10.99   0.4   2.5  0.00  0.20   2.3   1.5   0.0   0.0   0.00   0.00   0.00     0 .0002 1.782 5.564 0.537   0.00   0.00   2.74  0.88  0.28  0.91   6.3  0.75  1.07  0.07
   15  96    19    19   1.9 11.03   0.5   2.5  0.00  0.21   2.3   1.5   0.0   0.0   0.00   0.00   0.00     0 .0002 1.802 5.610 0.634   0.00   0.00   2.67  0.89  0.33  0.92   6.3  0.75  1.57  0.06
   15  97    20    20   2.9 11.07   0.6   2.6  0.00  0.24   2.4   1.6   0.0   0.0   0.00   0.00   0.00     0 .0002 1.815 5.652 0.751   0.00   0.00   2.55  0.89  0.39  0.92   6.3  0.75  0.95  0.10
   15  98    21    21   6.6 11.18   1.0   3.0  0.00  0.29   2.7   1.8   0.0   0.0   0.00   0.00   0.00     0 .0003 1.845 5.755 1.047   0.00   0.00   2.47  0.91  0.54  0.94   6.3  0.75  1.66  0.38
   15  99    22    22  10.2 11.35   1.5   3.6  0.00  0.33   3.2   2.2   0.0   0.0   0.00   0.00   0.00     0 .0004 1.784 5.488 1.156   0.00   0.00   2.43  0.87  0.60  0.91   6.3  0.74  0.69  0.83
   15 100    23    23  11.4 11.54   2.0   4.0  0.00  0.39   3.7   2.4   0.0   0.0   0.00   0.00   0.00     0 .0006 1.728 5.106 1.119   0.00   0.00   2.30  0.81  0.59  0.88   6.3  0.74  0.53  0.91
   15 101    24    24  11.7 11.74   2.4   4.4  0.00  0.44   4.0   2.6   0.0   0.0   0.00   0.00   0.00     0 .0008 1.691 4.731 1.038   0.00   0.00   2.18  0.75  0.55  0.86   6.2  0.74  0.41  0.88
   15 102    25    25  12.3 11.94   2.6   4.6  0.00  0.48   4.1   2.8   0.0   0.0   0.00   0.00   0.00     0 .0010 1.669 4.496 0.972   0.00   0.00   2.09  0.72  0.52  0.85   6.2  0.74  0.34  0.65
   15 103    26    26  11.9 12.07   2.7   4.7  0.00  0.52   4.2   2.8   0.0   0.0   0.00   0.07   0.00 .0136 .0013 1.654 4.394 0.931   0.00   0.00   2.02  0.71  0.51  0.84   6.2  0.74  0.33  0.40
   15 104    27    27  12.1 12.17   2.8   4.8  0.00  0.55   4.3   2.8   0.0   0.0   0.00   0.07   0.00 .0276 .0015 1.640 4.356 0.926   0.00   0.00   1.94  0.70  0.51  0.84   6.2  0.74  0.28  0.28
   15 105    28    28  14.4 12.29   2.9   4.8  0.00  0.58   4.3   2.8   0.0   0.0   0.00   0.07   0.00 .0419 .0019 1.629 4.296 0.902   0.00   0.00   1.86  0.70  0.50  0.83   6.1  0.74  0.19  0.28
   15 106    29    29  15.7 12.42   2.9   4.9  0.00  0.62   4.3   2.8   0.0   0.0   0.00   0.07   0.00 .0563 .0023 1.619 4.188 0.855   0.00   0.00   1.79  0.68  0.48  0.83   6.1  0.74  0.13  0.34
   15 107    30    30  10.9 12.51   3.1   5.1  0.00  0.66   4.4   2.9   0.0   0.0   0.00   0.07   0.00 .0710 .0026 1.629 4.291 0.948   0.00   0.00   1.78  0.70  0.54  0.84   6.1  0.74  0.76  0.31
   15 108    31    31   5.5 12.56   3.3   5.3  0.00  0.74   4.5   3.0   0.0   0.0   0.00   0.00   0.00 .0710 .0028 1.671 4.408 1.021   0.00   0.00   1.71  0.72  0.59  0.86   6.1  0.74  2.00  0.20
   15 109    32    32   6.4 12.61   3.7   5.6  0.00  0.84   4.8   3.2   0.0   0.0   0.00   0.00   0.00 .0710 .0030 1.711 4.525 1.098   0.00   0.00   1.66  0.74  0.64  0.88   6.0  0.73  2.00  0.31
   15 110    33    33   8.1 12.68   4.1   6.0  0.00  0.96   5.1   3.4   0.0   0.0   0.00   0.00   0.00 .0710 .0033 1.746 4.651 1.187   0.00   0.00   1.61  0.76  0.69  0.90   6.0  0.73  2.00  0.41
   15 111    34    34  10.7 12.77   4.6   6.6  0.00  1.08   5.5   3.7   0.0   0.0   0.00   0.00   0.00 .0710 .0037 1.776 4.791 1.285   0.00   0.00   1.60  0.79  0.76  0.91   6.0  0.73  2.00  0.56
   15 112    35    35  11.2 12.86   5.2   7.2  0.00  1.22   5.9   4.0   0.0   0.0   0.00   0.00   0.00 .0710 .0042 1.801 4.918 1.361   0.00   0.00   1.58  0.81  0.81  0.93   6.0  0.73  2.00  0.59
   15 113    36    36   6.1 12.91   5.5   7.5  0.00  1.34   6.1   4.1   0.0   0.0   0.00   0.00   0.00 .0710 .0045 1.819 4.992 1.392   0.00   0.00   1.52  0.83  0.84  0.94   6.0  0.73  2.00  0.32
   15 114    37    37   8.8 12.99   6.0   8.0  0.00  1.49   6.5   4.3   0.0   0.0   0.00   0.00   0.00 .0710 .0049 1.836 5.079 1.431   0.00   0.00   1.47  0.85  0.87  0.95   5.9  0.73  1.55  0.49
   15 115    38    38  11.4 13.08   6.7   8.6  0.00  1.64   7.0   4.6   0.0   0.0   0.00   0.00   0.00 .0710 .0056 1.845 5.161 1.462   0.00   0.00   1.45  0.86  0.90  0.95   5.9  0.73  0.97  0.65
   15 116    39    39  15.1 13.21   7.5   9.4  0.00  1.76   7.7   5.1   0.1   0.0   0.00   0.00   0.00 .0710 .0066 1.856 5.259 1.498   0.00   0.00   1.49  0.88  0.94  0.96   5.9  0.73  1.05  0.82
   15 117    40    40  14.5 13.33   8.3  10.3  0.00  1.93   8.3   5.5   0.1   0.0   0.00   0.00   0.00 .0710 .0076 1.867 5.338 1.518   0.00   0.00   1.49  0.90  0.97  0.96   5.8  0.72  1.42  0.85
   15 118    41    41   8.3 13.40   8.8  10.8  0.00  2.06   8.7   5.8   0.1   0.0   0.00   0.00   0.00 .0710 .0082 1.874 5.385 1.524   0.00   0.00   1.47  0.91  0.98  0.97   5.8  0.72  2.00  0.48
   15 119    42    42   7.0 13.45   9.2  11.2  0.00  2.23   9.0   6.0   0.1   0.0   0.00   0.00   0.00 .0710 .0087 1.881 5.422 1.527   0.00   0.00   1.40  0.92  0.99  0.97   5.8  0.72  2.00  0.42
   15 120    43    43  10.4 13.54   9.9  11.8  0.00  2.38   9.5   6.3   0.1   0.0   0.00   0.00   0.00 .0710 .0096 1.887 5.466 1.519   0.00   0.00   1.39  0.93  1.00  0.98   5.7  0.72  2.00  0.66
   15 121    44    44   8.6 13.61  10.3  12.3  0.00  2.45   9.8   6.5   0.1   0.0   0.00   0.00   0.00 .0710 .0104 1.891 5.498 1.502   0.00   0.00   1.41  0.94  1.00  0.98   5.7  0.72  2.00  0.45
   15 122    45    45  10.5 13.70  11.0  12.9  0.00  2.58  10.3   6.9   0.1   0.0   0.00   0.00   0.00 .0710 .0114 1.895 5.531 1.481   0.00   0.00   1.41  0.95  1.00  0.98   5.7  0.72  2.00  0.64
   15 123    46    46  13.2 13.81  11.8  13.7  0.00  2.72  11.0   7.3   0.1   0.0   0.00   0.00   0.00 .0710 .0127 1.898 5.561 1.455   0.00   0.00   1.42  0.96  1.00  0.99   5.6  0.72  2.00  0.78
   15 124    47    47  17.5 13.96  12.7  14.7  0.00  2.86  11.8   7.8   0.1   0.0   0.00   0.00   0.00 .0710 .0145 1.901 5.588 1.421   0.00   0.00   1.45  0.97  1.00  0.99   5.6  0.72  2.00  0.98
   15 125    48    48  19.4 14.12  14.0  15.9  0.00  3.08  12.8   8.5   0.1   0.0   0.00   0.00   0.00 .0710 .0166 1.904 5.609 1.382   0.00   0.00   1.45  0.98  1.00  0.99   5.5  0.71  2.00  1.21
   15 126    49    49  11.6 14.21  14.7  16.6  0.00  3.24  13.4   8.7   0.2   0.0   0.00   0.20   0.00 0.100 .0179 1.906 5.619 1.359   0.00   0.00   1.44  0.99  1.00  0.99   5.5  0.71  2.00  0.78
   15 127    50    50  13.0 14.32  15.5  17.3  0.00  3.44  13.9   9.0   0.2   0.0   0.00   0.22   0.00 0.133 .0195 1.908 5.626 1.333   0.00   0.00   1.40  0.99  1.00  1.00   5.5  0.71  2.00  0.71
   15 128    51    51  15.5 14.45  16.3  18.1  0.00  3.69  14.4   9.4   0.2   0.0   0.00   0.27   0.00 0.172 .0215 1.909 5.631 1.302   0.00   0.00   1.36  1.00  1.00  1.00   5.4  0.71  2.00  0.85
   15 129    52    52  14.2 14.57  17.0  18.8  0.00  3.87  14.9   9.7   0.2   0.0   0.00   0.25   0.00 0.208 .0235 1.910 5.600 1.273   0.00   0.00   1.33  1.00  1.00  1.00   5.4  0.71  2.00  0.67
   15 130    53    53  13.2 14.68  17.6  19.3  0.00  4.10  15.2   9.9   0.2   0.0   0.00   0.23   0.00 0.241 .0254 1.910 5.571 1.246   0.00   0.00   1.28  1.00  1.00  1.00   5.3  0.70  2.00  0.62
   15 131    54    54  13.7 14.79  18.3  20.0  0.00  4.39  15.7  10.2   0.2   0.0   0.00   0.24   0.00 0.276 .0275 1.907 5.540 1.218   0.00   0.00   1.22  1.00  1.00  1.00   5.3  0.70  2.00  0.74
   15 132    55    55  18.0 14.94  19.3  21.0  0.00  4.70  16.3  10.7   0.3   0.0   0.00   0.19   0.00 0.303 .0304 1.904 5.499 1.181   0.00   0.00   1.18  1.00  1.00  1.00   5.2  0.70  2.00  1.02
   15 133    56    56  17.8 15.09  20.7  22.4  0.00  4.90  17.5  11.5   0.3   0.0   0.00   0.00   0.00 0.303 .0335 1.902 5.459 1.145   0.00   0.00   1.20  1.00  1.00  1.00   5.1  0.70  1.68  1.34
   15 134    57    57  15.0 15.22  22.3  23.9  0.00  5.11  18.8  12.1   0.3   0.0   0.00   0.33   0.00 0.351 .0362 1.899 5.425 1.113   0.00   0.00   1.23  1.00  1.00  1.00   5.1  0.69  2.00  1.57
   15 135    58    58  11.4 15.31  23.2  24.8  0.00  5.32  19.5  12.7   0.4   0.0   0.00   0.25   0.00 0.389 .0384 1.897 5.398 1.090   0.00   0.00   1.22  1.00  1.00  1.00   5.0  0.69  2.00  0.95
   15 136    59    59  12.8 15.42  24.5  26.1  0.00  5.63  20.4  13.3   0.4   0.0   0.00   0.28   0.00 0.430 .0410 1.895 5.369 1.063   0.00   0.00   1.20  1.00  1.00  1.00   5.0  0.69  2.00  1.32
   15 137    60    60  14.1 15.54  25.9  27.4  0.00  5.85  21.6  13.9   0.4   0.0   0.00   0.31   0.00 0.476 .0439 1.893 5.336 1.033   0.00   0.00   1.21  1.00  1.00  1.00   4.9  0.69  1.60  1.38
   15 138    61    61  15.4 15.66  27.5  29.0  0.00  6.20  22.8  14.7   0.5   0.0   0.00   0.33   0.00 0.526 .0473 1.890 5.301 1.001   0.00   0.00   1.20  1.00  1.00  1.00   4.9  0.69  1.27  1.64
   15 139    62    62  13.9 15.78  28.9  30.3  0.00  6.45  23.9  15.4   0.5   0.0   0.00   0.30   0.00 0.572 .0505 1.887 5.248 0.992   0.00   0.00   1.20  1.00  1.00  1.00   4.8  0.68  1.32  1.37
   15 140    63    63   8.4 15.85  29.4  30.8  0.00  6.61  24.1  15.8   0.5   0.0   0.00   0.06   0.00 0.580 .0525 1.885 5.211 0.986   0.00   0.00   1.18  1.00  1.00  1.00   4.8  0.68  2.00  0.45
   15 141    64    64   9.8 15.93  30.5  31.9  0.00  6.82  25.0  16.4   0.6   0.0   0.00   0.06   0.00 0.590 .0549 1.883 5.169 0.980   0.00   0.00   1.17  1.00  1.00  1.00   4.7  0.68  2.00  1.12
   15 142    65    65   9.9 16.01  31.8  33.1  0.00  7.13  26.0  17.0   0.6   0.0   0.00   0.06   0.00 0.600 .0574 1.881 5.126 0.973   0.00   0.00   1.16  1.00  1.00  1.00   4.7  0.68  2.00  1.30
   15 143    66    66  11.7 16.11  34.0  35.3  0.00  7.43  27.9  18.2   0.7   0.0   0.00   0.08   0.00 0.612 .0605 1.878 5.076 0.965   0.00   0.00   1.18  1.00  1.00  1.00   4.6  0.67  1.17  2.19
   15 144    67    67  12.1 16.21  36.1  37.4  0.00  7.69  29.7  19.4   0.8   0.0   0.00   0.08   0.00 0.624 .0639 1.875 5.023 0.957   0.00   0.00   1.21  1.00  1.00  1.00   4.5  0.67  1.24  2.13
   15 145    68    68  14.6 30.15  38.3  39.6  0.00  7.95  31.6  20.6   0.9   0.0   0.00   0.09   0.00 0.639 .0680 1.866 4.960 0.943   0.00   0.00   1.22  1.00  0.99  1.00   4.4  0.67  0.85  2.56
   15 146    69    69  11.6 30.67  40.2  41.5  0.00  8.20  33.3  21.6   1.0   0.0   0.00   0.07   0.00 0.651 .0715 1.858 4.910 0.930   0.00   0.00   1.23  1.00  0.99  0.99   4.4  0.66  0.86  2.22
   15 147    70    70   9.2 31.08  41.7  42.9  0.00  8.49  34.5  22.4   1.0   0.0   0.00   0.06   0.00 0.660 .0744 1.848 4.870 0.919   0.00   0.00   1.22  1.00  0.98  0.99   4.3  0.66  0.84  1.76
   15 148    71    71  11.9 31.61  43.0  44.3  0.00  8.83  35.4  22.9   1.1   0.0   0.00   0.07   0.00 0.672 .0782 1.825 4.735 0.867   0.00   0.00   1.18  0.98  0.94  0.98   4.2  0.66  0.53  2.49
   15 149    72    72  15.6 32.30  44.2  45.5  0.00  9.15  36.3  23.5   1.2   0.0   0.00   0.09   0.00 0.688 .0834 1.805 4.531 0.796   0.00   0.00   1.14  0.95  0.87  0.97   4.1  0.65  0.40  3.15
   15 150    73    73  14.9 32.97  45.3  46.6  0.00  9.37  37.2  24.0   1.2   0.0   0.00   0.09   0.00 0.703 .0887 1.793 4.373 0.759   0.00   0.00   1.13  0.93  0.84  0.97   4.1  0.65  0.40  2.76
   15 151    74    74  15.4 33.65  46.4  47.7  0.00  9.64  38.0  24.5   1.3   0.0   0.00   0.08   0.00 0.718 .0942 1.778 4.223 0.714   0.00   0.00   1.10  0.91  0.80  0.96   4.0  0.65  0.38  2.93
   15 152    75    75  19.0 34.50  47.2  48.4  0.00  9.95  38.5  24.8   1.3   0.0   0.00   0.10   0.00 0.737 0.101 1.762 3.884 0.649   0.00   0.00   1.06  0.86  0.74  0.95   3.9  0.64  0.16  4.88
   15 153    76    76  19.8 35.37  47.9  49.1  0.00 10.22  38.9  25.1   1.4   0.0   0.00   0.09   0.00 0.757 0.109 1.750 3.595 0.599   0.00   0.00   1.03  0.81  0.69  0.95   3.8  0.64  0.14  4.90
   15 154    77    77  20.5 36.28  48.6  49.7  0.00 10.52  39.2  25.3   1.4   0.0   0.00   0.09   0.00 0.778 0.117 1.736 3.363 0.550   0.00   0.00   1.00  0.77  0.64  0.94   3.7  0.64  0.14  4.78
   15 155    78    78  19.7 37.16  49.2  50.3  0.00 10.80  39.5  25.5   1.4   0.0   0.00   0.08   0.00 0.797 0.125 1.725 3.173 0.510   0.00   0.00   0.97  0.74  0.61  0.94   3.6  0.63  0.13  4.55
   15 156    79    79  21.8 38.12  49.8  50.8  0.00 11.04  39.8  25.6   1.4   0.0   0.00   0.08   0.00 0.819 0.135 1.715 3.019 0.478   0.00   0.00   0.95  0.72  0.58  0.94   3.5  0.63  0.13  4.33
   15 157    80    80  21.8 39.09  50.3  51.3  0.00 11.33  40.0  25.8   1.4   0.0   0.00   0.08   0.00 0.840 0.144 1.704 2.875 0.444   0.00   0.00   0.92  0.70  0.55  0.93   3.4  0.62  0.11  4.40
   15 158    81    81  21.5 40.04  52.7  53.7  0.00 11.54  42.2  27.2   1.5   0.0   0.00   0.07   0.00 0.862 0.154 1.696 2.812 0.444   0.00   0.00   0.95  0.70  0.56  0.93   3.4  0.62  0.43  5.78
   15 159    82    82  16.1 40.71  53.5  54.5  0.00 11.73  42.7  27.3   1.7   0.0   0.00   0.21   0.06 0.862 0.162 1.689 2.841 0.446   0.00   0.00   0.94  0.72  0.57  0.93   3.3  0.61  0.49  1.46
   15 160    83    83  12.3 41.23  54.5  55.4  0.00 11.90  43.6  27.7   2.0   0.0   0.00   0.16   0.11 0.862 0.167 1.697 2.896 0.481   0.00   0.00   0.94  0.74  0.62  0.94   3.2  0.61  2.00  0.99
   15 161    84    84  14.7 41.84  55.7  56.7  0.00 12.17  44.5  28.0   2.4   0.0   0.00   0.20   0.17 0.862 0.174 1.705 2.946 0.522   0.00   0.00   0.94  0.77  0.68  0.94   3.1  0.60  2.00  1.21
   15 162    85    85  18.3 42.60  56.8  57.8  0.00 12.47  45.3  28.2   2.8   0.0   0.00   0.25   0.24 0.862 0.183 1.713 2.990 0.556   0.00   0.00   0.93  0.79  0.74  0.95   3.0  0.60  2.00  1.15
   15 163    86    86  20.9 43.47  58.1  59.0  0.00 12.86  46.2  28.3   3.4   0.0   0.00   0.30   0.32 0.862 0.194 1.720 3.029 0.588   0.00   0.00   0.92  0.82  0.80  0.95   2.8  0.59  2.00  1.26
   15 164    87    87  20.1 44.31  59.0  60.0  0.00 13.17  46.8  28.3   3.8   0.0   0.00   0.29   0.39 0.862 0.204 1.727 3.062 0.608   0.00   0.00   0.91  0.85  0.85  0.96   2.7  0.58  2.00  0.97
   15 165    88    88  20.1 45.15  59.9  60.8  0.00 13.47  47.4  28.3   4.3   0.0   0.00   0.29   0.47 0.862 0.214 1.732 3.089 0.622   0.00   0.00   0.89  0.87  0.89  0.97   2.6  0.57  2.00  0.85
   15 166    89    89  15.1 45.78  60.3  61.3  0.00 13.64  47.7  28.4   4.6   0.0   0.00   0.22   0.53 0.862 0.222 1.736 3.112 0.629   0.00   0.00   0.88  0.89  0.92  0.97   2.5  0.57  2.00  0.46
   15 167    90    90  15.2 46.41  61.0  62.0  0.00 13.89  48.1  28.3   5.0   0.0   0.00   0.23   0.58 0.862 0.230 1.740 3.130 0.636   0.00   0.00   0.87  0.91  0.95  0.97   2.4  0.56  2.00  0.70
   15 168    91    91  14.8 47.03  61.8  62.7  0.00 14.16  48.5  28.3   5.4   0.0   0.00   0.22   0.64 0.862 0.238 1.743 3.145 0.640   0.00   0.00   0.85  0.93  0.97  0.98   2.3  0.56  2.00  0.71
   15 169    92    92  13.2 47.58  62.4  63.3  0.00 14.41  48.9  28.2   5.9   0.0   0.00   0.20   0.69 0.862 0.245 1.746 3.156 0.642   0.00   0.00   0.83  0.95  0.99  0.98   2.2  0.55  2.00  0.60
   15 170    93    93  13.2 48.13  62.8  63.7  0.00 14.59  49.1  28.1   6.2   0.0   0.00   0.20   0.74 0.862 0.252 1.749 3.164 0.637   0.00   0.00   0.82  0.97  1.00  0.98   2.2  0.55  2.00  0.42
   15 171    94    94  12.2 48.64  63.1  64.0  0.00 14.79  49.3  28.0   6.5   0.0   0.00   0.19   0.78 0.862 0.259 1.751 3.169 0.627   0.00   0.00   0.80  0.98  1.00  0.99   2.1  0.54  2.00  0.38
   15 172    95    95  13.6 49.20  63.6  64.4  0.00 15.01  49.4  27.9   6.8   0.0   0.00   0.21   0.83 0.862 0.267 1.753 3.172 0.616   0.00   0.00   0.78  1.00  1.00  0.99   2.0  0.54  2.00  0.41
   15 173    96    96  16.2 49.88  63.9  64.8  0.00 15.24  49.5  27.7   7.1   0.0   0.00   0.25   0.89 0.862 0.276 1.755 3.111 0.602   0.00   0.00   0.76  1.00  1.00  0.99   1.9  0.53  2.00  0.34
   15 174    97    97  13.1 51.70  63.9  64.8  0.00 15.43  49.3  27.0   7.4   0.0   0.00   0.80   0.94 0.862 0.284 1.756 3.083 0.596   0.00   0.00   0.74  1.00  1.00  0.99   1.9  0.53  2.00  0.00
   15 175    98    98  13.9 54.02  63.9  64.8  0.00 15.66  49.1  26.6   7.8   0.0   0.00   0.69   0.98 0.862 0.292 1.757 3.060 0.590   0.00   0.00   0.72  1.00  1.00  0.99   1.8  0.52  2.00  0.00
   15 176    99    99  13.8 56.33  63.9  64.8  0.00 15.88  48.9  26.2   8.3   0.0   0.00   0.44   1.03 0.862 0.300 1.758 3.037 0.584   0.00   0.00   0.69  1.00  1.00  1.00   1.8  0.52  2.00  0.00
   15 177   100   100  16.5 59.08  63.9  64.7  0.00 16.08  48.7  25.8   8.8   0.0   0.00   0.24   1.08 0.862 0.310 1.759 3.009 0.577   0.00   0.00   0.66  1.00  1.00  1.00   1.7  0.51  2.00  0.00
   15 178   101   101  18.4 65.34  63.9  64.7  0.00 16.20  48.5  25.4   9.1   0.0   0.00   0.35   1.14 0.862 0.321 1.758 2.979 0.570   0.00   0.00   0.64  1.00  1.00  1.00   1.6  0.51  2.00  0.00
   15 179   102   102  17.9 70.43  63.9  64.7  0.00 16.28  48.4  24.9   9.5   0.0   0.00   0.54   1.20 0.862 0.332 1.755 2.949 0.562   0.00   0.00   0.62  1.00  1.00  1.00   1.6  0.50  2.00  0.00
   15 180   103   103  18.9 71.64  63.9  64.7  0.00 16.32  48.4  24.5   9.9   0.1   0.00   0.56   1.26 0.862 0.343 1.752 2.917 0.554   2.00   0.00   0.60  1.00  1.00  1.00   1.5  0.50  2.00  0.00
   15 181   104   104  20.6 72.96  63.9  64.7  0.00 16.33  48.4  24.0   9.7   0.7   0.01   0.75   1.33 0.862 0.356 1.748 2.883 0.546   2.00   0.00   0.58  1.00  1.00  1.00   1.5  0.50  2.00  0.00
   15 182   105   105  21.0 74.31  63.9  64.7  0.00 16.33  48.4  23.5   9.6   1.8   0.04   0.51   1.39 0.862 0.369 1.745 2.848 0.537   2.00   0.00   0.55  1.00  1.00  1.00   1.5  0.49  2.00  0.00
   15 183   106   106  22.2 75.73  64.4  65.2  0.00 16.34  48.9  23.0   9.4   3.4   0.07   0.27   1.47 0.862 0.382 1.741 2.811 0.528   2.00   0.00   0.53  1.00  1.00  1.00   1.5  0.49  2.00  0.54
   15 184   107   107  23.0 77.21  65.8  66.6  0.00 16.34  50.2  22.5   9.3   5.6   0.11   0.27   1.54 0.862 0.396 1.737 2.773 0.518   2.00   0.00   0.51  1.00  1.00  1.00   1.4  0.49  1.81  1.37
   15 185   108   108  24.6 78.78  67.5  68.2  0.00 15.92  52.3  21.9   9.1   8.6   0.16   0.29   1.62 0.862 0.411 1.692 2.732 0.508   2.00   0.00   0.49  1.00  1.00  0.98   1.4  0.48  0.80  2.10
   15 186   109   109  25.5 80.09  68.6  69.4  0.00 15.15  54.2  20.8   8.9  12.4   0.23   0.29   1.70 0.862 0.427 1.608 2.659 0.499   2.00   0.00   0.47  0.99  1.00  0.93   1.4  0.48  0.40  2.90
   15 187   110   110  23.2 80.42  69.5  70.2  0.00 14.54  55.7  19.3   8.6  16.4   0.29   0.08   1.72 0.862 0.441 1.541 2.484 0.491   2.00   0.00   0.44  0.94  0.99  0.89   1.4  0.48  0.22  3.71
   15 188   111   111  25.1 80.78  70.1  70.8  0.00 14.05  56.8  17.0   8.4  20.7   0.36   0.52   1.89 0.862 0.456 1.489 2.230 0.478   2.00   0.00   0.41  0.86  0.97  0.86   1.3  0.48  0.15  4.44
   15 189   112   112  17.4 81.03  73.0  73.7  0.00 14.18  59.5  17.1   8.4  23.6   0.40   0.05   1.91 0.862 0.466 1.501 2.249 0.479   2.00   0.00   0.41  0.87  0.98  0.87   1.3  0.48  2.00  2.84
   15 190   113   113  13.9 81.23  75.3  76.0  0.00 14.31  61.7  17.1   8.4  25.7   0.42   0.04   1.92 0.862 0.475 1.513 2.265 0.480   2.00   0.00   0.41  0.89  0.98  0.88   1.3  0.48  2.00  2.36
   15 191   114   114  14.9 81.44  78.0  78.6  0.00 14.45  64.2  17.2   8.4  28.1   0.44   0.04   1.94 0.862 0.484 1.524 2.280 0.480   2.00   0.00   0.40  0.90  0.99  0.88   1.3  0.48  1.73  2.64
   15 192   115   115  18.3 81.70  78.6  79.3  0.00 13.98  65.3  15.6   8.3  31.2   0.48   0.43   2.09 0.862 0.495 1.474 2.112 0.472   2.00   0.00   0.38  0.85  0.98  0.86   1.3  0.48  0.20  3.36
   15 193   116   116  20.5 82.00  79.2  79.8  0.00 13.61  66.2  13.9   8.1  34.7   0.52   0.38   2.24 0.862 0.508 1.435 1.923 0.463   2.00   0.00   0.36  0.78  0.96  0.83   1.2  0.48  0.15  3.44
   15 194   117   117  18.4 82.26  79.6  80.2  0.00 13.31  66.9  12.6   8.0  37.9   0.57   0.04   2.26 0.862 0.519 1.404 1.746 0.455   2.00   0.00   0.33  0.72  0.95  0.82   1.2  0.48  0.14  3.23
   15 195   118   118  20.6 82.55  80.0  80.6  0.00 13.07  67.5  10.7   7.8  41.1   0.61   0.29   2.41 0.862 0.531 1.379 1.517 0.444   1.99   0.00   0.31  0.63  0.94  0.80   1.2  0.47  0.09  4.04
   15 196   119   119  21.7 82.86  80.3  80.9  0.00 12.88  68.0   9.1   7.6  44.0   0.65   0.23   2.56 0.862 0.545 1.359 1.333 0.435   1.95   0.00   0.28  0.57  0.92  0.79   1.2  0.47  0.08  4.09
   15 197   120   120  22.4 83.18  80.6  81.2  0.00 12.72  68.5   7.9   7.5  46.2   0.67   0.18   2.70 0.862 0.558 1.343 1.187 0.428   1.89   0.00   0.27  0.51  0.91  0.78   1.1  0.47  0.06  4.33
   15 198   121   121  24.6 83.53  80.8  81.4  0.00 12.58  68.8   6.8   7.4  48.0   0.70   0.26   2.97 0.862 0.573 1.330 1.069 0.422   1.80   0.00   0.26  0.47  0.91  0.78   1.1  0.47  0.05  4.80
   15 199   122   122  22.0 83.85  81.0  81.6  0.00 12.47  69.1   6.0   7.3  49.5   0.72   0.20   3.22 0.862 0.586 1.319 0.976 0.418   1.74   0.00   0.25  0.44  0.91  0.77   1.1  0.47  0.05  4.28
   15 200   123   123  22.4 84.17  81.2  81.8  0.00 12.38  69.4   5.3   7.3  50.6   0.73   0.15   3.46 0.862 0.600 1.311 0.900 0.414   1.66   0.00   0.24  0.41  0.90  0.77   1.0  0.47  0.04  4.43
   15 201   124   124  23.3 84.50  81.4  81.9  0.00 12.31  69.6   4.7   7.2  51.6   0.74   0.12   3.69 0.862 0.614 1.304 0.840 0.411   1.59   0.00   0.24  0.39  0.90  0.76   1.0  0.46  0.04  4.62
   15 202   125   125  24.2 84.85  81.5  82.1  0.00 12.24  69.8   4.2   7.2  52.3   0.75   0.09   3.92 0.862 0.628 1.299 0.792 0.409   1.52   0.00   0.24  0.37  0.91  0.76   1.0  0.46  0.03  4.80
   15 203   126   126  25.0 85.20  81.7  82.2  0.00 12.18  70.0   3.8   7.2  52.9   0.76   0.07   4.13 0.862 0.643 1.294 0.754 0.407   1.44   0.00   0.24  0.36  0.91  0.76   0.9  0.46  0.03  4.93
   15 204   127   127  21.4 85.51  81.8  82.3  0.00 12.13  70.2   3.5   7.1  53.4   0.76   0.05   4.34 0.862 0.656 1.290 0.723 0.406   1.39   0.00   0.24  0.35  0.91  0.76   0.9  0.46  0.03  4.31
   15 205   128   128  22.0 85.82  81.9  82.4  0.00 12.09  70.4   3.2   7.1  53.8   0.76   0.04   4.53 0.862 0.669 1.287 0.698 0.405   1.33   0.00   0.24  0.35  0.92  0.76   0.9  0.46  0.03  4.40
   15 206   129   129  18.8 86.09  82.1  82.5  0.00 12.05  70.5   3.0   7.1  54.1   0.77   0.03   4.72 0.862 0.681 1.284 0.679 0.404   1.29   0.00   0.25  0.34  0.92  0.76   0.9  0.45  0.03  3.85
   15 207   130   130  15.6 86.31  82.2  82.6  0.00 12.02  70.6   2.8   7.1  54.4   0.77   0.02   4.89 0.862 0.690 1.281 0.663 0.403   1.26   0.00   0.25  0.34  0.92  0.75   0.8  0.45  0.03  3.20
   15 208   131   131  18.3 86.58  82.3  82.7  0.00 11.99  70.7   2.6   7.1  54.7   0.77   0.02   5.06 0.862 0.701 1.279 0.650 0.402   1.22   0.00   0.25  0.34  0.93  0.75   0.8  0.45  0.03  3.74
   15 209   132   132  17.5 86.82  85.1  85.6  0.00 11.96  73.6   2.5   7.1  57.6   0.78   0.01   5.15 0.862 0.711 1.277 0.640 0.402   1.24   0.00   0.26  0.34  0.93  0.75   0.8  0.45  0.80  3.57
   15 210   133   133  15.0 87.04  85.6  86.0  0.00 11.94  74.1   2.4   7.1  58.1   0.78   0.01   5.31 0.862 0.720 1.276 0.632 0.402   1.22   0.00   0.26  0.34  0.93  0.75   0.8  0.45  0.14  2.98
   15 211   134   134  14.6 87.25  86.1  86.5  0.00 11.91  74.6   2.2   7.1  58.7   0.79   0.01   5.57 0.862 0.729 1.274 0.626 0.401   1.21   0.00   0.26  0.34  0.94  0.75   0.7  0.45  0.19  2.83
   15 212   135   135  16.4 87.48  86.2  86.6  0.00 11.89  74.7   2.0   7.0  58.9   0.79   0.01   5.81 0.862 0.739 1.273 0.621 0.401   1.18   0.00   0.27  0.34  0.94  0.75   0.7  0.44  0.03  3.31
   15 213   136   136  17.0 87.72  86.3  86.7  0.00 11.87  74.8   1.8   7.0  59.0   0.79   0.01   6.06 0.862 0.749 1.272 0.617 0.401   1.14   0.00   0.28  0.35  0.95  0.75   0.7  0.44  0.02  3.38
   15 214   137   137  19.0 88.00  86.4  86.8  0.00 11.85  74.9   1.6   7.0  59.1   0.79   0.01   6.30 0.862 0.760 1.271 0.613 0.401   1.11   0.00   0.28  0.35  0.95  0.75   0.7  0.44  0.02  3.70
   15 215   138   138  19.8 88.28  86.4  86.8  0.00 11.83  75.0   1.5   7.0  59.2   0.79   0.01   6.55 0.862 0.772 1.270 0.611 0.401   1.08   0.00   0.29  0.36  0.96  0.75   0.6  0.43  0.02  3.80
   15 216   139   139  21.9 88.59  86.5  86.9  0.00 11.81  75.1   1.3   7.0  59.3   0.79   0.00   6.83 0.862 0.784 1.269 0.608 0.400   1.04   0.00   0.30  0.36  0.97  0.75   0.6  0.43  0.02  4.13
   15 217   140   140  21.8 88.90  86.6  87.0  0.00 11.79  75.2   1.1   7.0  59.4   0.79   0.00   7.13 0.862 0.797 1.268 0.607 0.400   1.01   0.00   0.31  0.37  0.97  0.75   0.6  0.43  0.02  4.08
   15 218   141   141  23.4 89.24  86.7  87.0  0.00 11.76  75.2   1.0   6.9  59.5   0.79   0.00   7.41 0.862 0.811 1.267 0.605 0.400   0.98   0.00   0.33  0.38  0.98  0.75   0.5  0.42  0.02  4.34
   15 219   142   142  24.8 89.59  86.7  87.1  0.00 11.74  75.3   0.8   6.9  59.6   0.79   0.00   7.70 0.862 0.825 1.266 0.602 0.400   0.95   0.00   0.34  0.39  0.99  0.75   0.5  0.42  0.01  4.54
   15 220   143   143  25.2 89.95  86.8  87.1  0.00 11.72  75.4   0.6   6.8  59.7   0.79   0.00   7.99 0.862 0.840 1.265 0.600 0.400   0.92   0.00   0.36  0.40  1.00  0.75   0.5  0.42  0.01  4.58
   15 221   144   144  24.7 91.05  86.8  87.2  0.00 11.69  75.5   0.5   6.8  59.7   0.79   0.00   8.28 0.862 0.855 1.264 0.600 0.400   0.91   0.00   0.36  0.41  1.00  0.75   0.5  0.41  0.01  4.48

*DSSAT Cropping System Model Ver. 4.8.5.000 -release  OCT 24, 2025 14:14:59

*RUN   3        : 3                         CSCER048 TUDU1501    3
 MODEL          : CSCER048 - Wheat
 EXPERIMENT     : TUDU1501 WH
 DATA PATH      :
 TREATMENT  3   : 3                         CSCER048
  
@YEAR DOY   DAS   DAP TMEAN  GSTD  NUAC  TNAD SDNAD  RNAD  CNAD  LNAD  SNAD  HNAD   HIND  RSNAD  SNNPD SNN0D SNN1D  RN%D  LN%D  SN%D   HN%D  SDN%D   VN%D LN%RD SN%RD RN%RD  VCN%  VMN% NUPRD NDEMD
   15  77     0     0   7.7  0.00   0.0   2.0  2.02  0.00   0.0   0.0   0.0   0.0   0.00   0.00   0.00     0     0 0.000 0.000 0.000   0.00   1.90   0.00  0.00  0.00  0.00   0.0  0.00  0.00  0.00
   15  78     1     1   6.3  2.65   0.0   2.0  2.02  0.00   0.0   0.0   0.0   0.0   0.00   0.00   0.00     0     0 0.000 0.000 0.000   0.00   1.90   0.00  0.00  0.00  0.00   0.0  0.00  0.00  0.00
   15  79     2     2   5.4  4.83   0.0   2.0  2.02  0.00   0.0   0.0   0.0   0.0   0.00   0.00   0.00     0     0 0.000 0.000 0.000   0.00   1.90   0.00  0.00  0.00  0.00   0.0  0.00  0.00  0.00
   15  80     3     3   5.3  5.99   0.0   2.0  2.02  0.00   0.0   0.0   0.0   0.0   0.00   0.00   0.00     0     0 0.000 0.000 0.000   0.00   1.90   0.00  0.00  0.00  0.00   0.0  0.00  0.00  0.00
   15  81     4     4   4.1  6.77   0.0   2.0  2.02  0.01   0.0   0.0   0.0   0.0   0.00   0.00   0.00     0     0 1.993 0.000 0.000   0.00   1.90   0.00  0.00  0.00  1.00   0.0  0.00  0.00  0.00
   15  82     5     5   2.8  7.21   0.0   2.0  2.02  0.01   0.0   0.0   0.0   0.0   0.00   0.00   0.00     0 .0000 1.989 0.000 0.000   0.00   1.90   0.00  0.00  0.00  1.00   0.0  0.00  0.77  0.00
   15  83     6     6   6.6  8.61   0.0   2.0  2.01  0.02   0.0   0.0   0.0   0.0   0.00   0.00   0.00     0 .0000 1.980 0.000 0.000   0.00   1.90   0.00  0.00  0.00  1.00   0.0  0.00  0.38  0.01
   15  84     7     7   8.9 10.00   0.0   2.0  2.00  0.03   0.0   0.0   0.0   0.0   0.00   0.00   0.00     0 .0000 1.970 0.000 0.000   0.00   1.91   0.00  0.00  0.00  1.00   0.0  0.00  0.38  0.01
   15  85     8     8   6.3 10.10   0.0   2.0  1.70  0.04   0.3   0.2   0.0   0.0   0.00  -0.00   0.00     0 .0000 1.968 6.373 0.000   0.00   1.70   6.40  1.00  0.00  1.00   6.4  0.75  0.02  0.24
   15  86     9     9   6.5 10.21   0.0   2.0  1.39  0.05   0.6   0.4   0.0   0.0   0.00   0.00   0.00     0 .0000 1.967 6.364 0.011   0.00   1.47   5.83  1.00  0.01  1.00   6.4  0.75  0.03  0.25
   15  87    10    10   6.4 10.32   0.0   2.1  1.09  0.06   0.9   0.6   0.0   0.0   0.00   0.00   0.00     0 .0000 1.967 6.367 0.019   0.00   1.21   5.14  1.00  0.01  1.00   6.4  0.75  0.04  0.25
   15  88    11    11   9.5 10.48   0.0   2.1  0.41  0.08   1.6   1.1   0.0   0.0   0.00   0.00   0.00     0 .0001 1.967 6.362 0.012   0.00   0.52   5.08  1.00  0.01  1.00   6.3  0.75  0.02  0.55
   15  89    12    12   6.7 10.59   0.1   2.1  0.08  0.09   1.9   1.3   0.0   0.0   0.00   0.00   0.00     0 .0001 1.965 6.358 0.012   0.00   0.11   4.64  1.00  0.01  1.00   6.3  0.75  0.05  0.28
   15  90    13    13   7.8 10.72   0.1   2.1  0.00  0.12   2.0   1.3   0.0   0.0   0.00   0.00   0.00     0 .0001 1.940 5.782 0.042   0.00   0.00   3.78  0.91  0.02  0.99   6.3  0.75  0.14  0.31
   15  91    14    14   3.3 10.77   0.2   2.2  0.00  0.14   2.0   1.4   0.0   0.0   0.00   0.00   0.00     0 .0001 1.882 5.712 0.141   0.00   0.00   3.50  0.90  0.07  0.96   6.3  0.75  0.55  0.10
   15  92    15    15   3.1 10.82   0.2   2.2  0.00  0.15   2.1   1.4   0.0   0.0   0.00   0.00   0.00     0 .0001 1.840 5.686 0.250   0.00   0.00   3.31  0.90  0.13  0.94   6.3  0.75  0.65  0.09
   15  93    16    16   4.2 10.89   0.3   2.3  0.00  0.17   2.1   1.4   0.0   0.0   0.00   0.00   0.00     0 .0002 1.780 5.532 0.309   0.00   0.00   2.95  0.87  0.16  0.91   6.3  0.75  0.41  0.16
   15  94    17    17   3.6 10.95   0.4   2.4  0.00  0.18   2.2   1.5   0.0   0.0   0.00   0.00   0.00     0 .0002 1.756 5.511 0.418   0.00   0.00   2.84  0.87  0.21  0.89   6.3  0.75  0.66  0.11
   15  95    18    18   2.5 10.99   0.4   2.5  0.00  0.20   2.3   1.5   0.0   0.0   0.00   0.00   0.00     0 .0002 1.782 5.564 0.537   0.00   0.00   2.74  0.88  0.28  0.91   6.3  0.75  1.07  0.07
   15  96    19    19   1.9 11.03   0.5   2.5  0.00  0.21   2.3   1.5   0.0   0.0   0.00   0.00   0.00     0 .0002 1.802 5.610 0.634   0.00   0.00   2.67  0.89  0.33  0.92   6.3  0.75  1.57  0.06
   15  97    20    20   2.9 11.07   0.6   2.6  0.00  0.24   2.4   1.6   0.0   0.0   0.00   0.00   0.00     0 .0002 1.815 5.652 0.751   0.00   0.00   2.55  0.89  0.39  0.92   6.3  0.75  0.95  0.10
   15  98    21    21   6.6 11.18   0.7   2.7  0.00  0.27   2.4   1.6   0.0   0.0   0.00   0.00   0.00     0 .0003 1.760 5.180 0.678   0.00   0.00   2.22  0.82  0.35  0.90   6.3  0.75  0.26  0.38
   15  99    22    22  10.2 11.35   0.8   2.8  0.00  0.31   2.5   1.7   0.0   0.0   0.00   0.00   0.00     0 .0004 1.716 4.313 0.526   0.00   0.00   1.89  0.68  0.28  0.87   6.3  0.74  0.12  0.75
   15 100    23    23  11.4 11.54   0.9   2.9  0.00  0.36   2.5   1.7   0.0   0.0   0.00   0.00   0.00     0 .0006 1.680 3.761 0.427   0.00   0.00   1.66  0.60  0.23  0.86   6.3  0.74  0.12  0.72
   15 101    24    24  11.7 11.74   0.9   3.0  0.00  0.40   2.6   1.7   0.0   0.0   0.00   0.00   0.00     0 .0008 1.656 3.408 0.379   0.00   0.00   1.53  0.54  0.20  0.84   6.2  0.74  0.13  0.66
   15 102    25    25  12.3 11.94   1.0   3.0  0.00  0.44   2.6   1.7   0.0   0.0   0.00   0.00   0.00     0 .0010 1.637 3.142 0.343   0.00   0.00   1.43  0.50  0.18  0.84   6.2  0.74  0.13  0.65
   15 103    26    26  11.9 12.07   1.1   3.1  0.00  0.47   2.7   1.8   0.0   0.0   0.00   0.00   0.00     0 .0012 1.622 3.030 0.331   0.00   0.00   1.36  0.49  0.18  0.83   6.2  0.74  0.17  0.47
   15 104    27    27  12.1 12.17   1.2   3.2  0.00  0.51   2.7   1.8   0.0   0.0   0.00   0.00   0.00     0 .0015 1.609 2.954 0.326   0.00   0.00   1.30  0.48  0.18  0.82   6.2  0.74  0.19  0.43
   15 105    28    28  14.4 12.29   1.3   3.3  0.00  0.55   2.7   1.8   0.0   0.0   0.00   0.00   0.00     0 .0018 1.598 2.866 0.315   0.00   0.00   1.25  0.46  0.18  0.82   6.1  0.74  0.17  0.47
   15 106    29    29  15.7 12.42   1.4   3.4  0.00  0.59   2.8   1.8   0.0   0.0   0.00   0.04   0.00 .0141 .0022 1.588 2.776 0.303   0.00   0.00   1.21  0.45  0.17  0.81   6.1  0.74  0.16  0.50
   15 107    30    30  10.9 12.51   1.5   3.4  0.00  0.62   2.8   1.9   0.0   0.0   0.00   0.04   0.00 .0287 .0025 1.579 2.795 0.342   0.00   0.00   1.18  0.46  0.20  0.81   6.1  0.74  0.27  0.37
   15 108    31    31   5.5 12.56   1.7   3.7  0.00  0.68   3.0   2.0   0.0   0.0   0.00   0.04   0.00 .0433 .0026 1.616 2.985 0.447   0.00   0.00   1.20  0.49  0.26  0.83   6.1  0.74  0.98  0.23
   15 109    32    32   6.4 12.61   1.9   3.9  0.00  0.74   3.1   2.1   0.0   0.0   0.00   0.00   0.00 .0433 .0028 1.642 3.160 0.549   0.00   0.00   1.21  0.52  0.32  0.84   6.0  0.73  0.90  0.26
   15 110    33    33   8.1 12.68   2.2   4.1  0.00  0.79   3.3   2.2   0.0   0.0   0.00   0.00   0.00 .0433 .0031 1.628 3.278 0.628   0.00   0.00   1.21  0.54  0.37  0.84   6.0  0.73  0.68  0.36
   15 111    34    34  10.7 12.77   2.4   4.4  0.00  0.86   3.5   2.3   0.0   0.0   0.00   0.00   0.00 .0433 .0035 1.614 3.313 0.662   0.00   0.00   1.19  0.55  0.39  0.83   6.0  0.73  0.48  0.46
   15 112    35    35  11.2 12.86   2.6   4.6  0.00  0.92   3.6   2.4   0.0   0.0   0.00   0.00   0.00 .0433 .0039 1.602 3.323 0.675   0.00   0.00   1.17  0.55  0.40  0.82   6.0  0.73  0.43  0.48
   15 113    36    36   6.1 12.91   2.8   4.8  0.00  0.97   3.8   2.5   0.0   0.0   0.00   0.00   0.00 .0433 .0042 1.592 3.410 0.718   0.00   0.00   1.16  0.57  0.43  0.82   6.0  0.73  0.63  0.32
   15 114    37    37   8.8 12.99   3.0   4.9  0.00  1.04   3.9   2.6   0.0   0.0   0.00   0.00   0.00 .0433 .0046 1.581 3.428 0.726   0.00   0.00   1.12  0.57  0.44  0.81   5.9  0.73  0.45  0.43
   15 115    38    38  11.4 13.08   3.2   5.1  0.00  1.11   4.0   2.7   0.0   0.0   0.00   0.00   0.00 .0433 .0051 1.573 3.390 0.703   0.00   0.00   1.09  0.57  0.43  0.81   5.9  0.73  0.35  0.54
   15 116    39    39  15.1 13.21   3.4   5.3  0.00  1.17   4.2   2.8   0.0   0.0   0.00   0.00   0.00 .0433 .0059 1.566 3.327 0.671   0.00   0.00   1.08  0.56  0.42  0.81   5.9  0.73  0.31  0.62
   15 117    40    40  14.5 13.33   3.5   5.5  0.00  1.24   4.3   2.9   0.0   0.0   0.00   0.00   0.00 .0433 .0067 1.559 3.269 0.643   0.00   0.00   1.05  0.55  0.41  0.81   5.8  0.73  0.31  0.64
   15 118    41    41   8.3 13.40   3.8   5.8  0.00  1.29   4.5   3.0   0.0   0.0   0.00   0.00   0.00 .0433 .0071 1.554 3.357 0.689   0.00   0.00   1.06  0.57  0.44  0.80   5.8  0.72  0.61  0.43
   15 119    42    42   7.0 13.45   4.1   6.1  0.00  1.37   4.7   3.1   0.0   0.0   0.00   0.00   0.00 .0433 .0076 1.561 3.466 0.740   0.00   0.00   1.06  0.59  0.48  0.81   5.8  0.72  0.74  0.40
   15 120    43    43  10.4 13.54   4.4   6.4  0.00  1.44   5.0   3.3   0.0   0.0   0.00   0.00   0.00 .0433 .0082 1.555 3.525 0.771   0.00   0.00   1.07  0.60  0.51  0.81   5.8  0.72  0.57  0.54
   15 121    44    44   8.6 13.61   4.6   6.6  0.00  1.47   5.1   3.4   0.0   0.0   0.00   0.00   0.00 .0433 .0088 1.554 3.577 0.793   0.00   0.00   1.09  0.61  0.53  0.80   5.7  0.72  0.53  0.42
   15 122    45    45  10.5 13.70   4.8   6.8  0.00  1.52   5.3   3.5   0.0   0.0   0.00   0.00   0.00 .0433 .0095 1.549 3.543 0.767   0.00   0.00   1.07  0.61  0.52  0.80   5.7  0.72  0.33  0.54
   15 123    46    46  13.2 13.81   5.0   7.0  0.00  1.58   5.4   3.6   0.0   0.0   0.00   0.00   0.00 .0433 .0104 1.545 3.479 0.727   0.00   0.00   1.06  0.60  0.50  0.80   5.7  0.72  0.28  0.63
   15 124    47    47  17.5 13.96   5.2   7.1  0.00  1.64   5.5   3.7   0.0   0.0   0.00   0.00   0.00 .0433 .0117 1.541 3.372 0.676   0.00   0.00   1.04  0.59  0.48  0.80   5.6  0.72  0.22  0.74
   15 125    48    48  19.4 14.12   5.3   7.3  0.00  1.72   5.6   3.7   0.0   0.0   0.00   0.00   0.00 .0433 .0132 1.535 3.238 0.607   0.00   0.00   1.00  0.57  0.44  0.80   5.6  0.71  0.19  0.86
   15 126    49    49  11.6 14.21   5.5   7.4  0.00  1.78   5.7   3.7   0.0   0.0   0.00   0.10   0.00 .0722 .0141 1.532 3.200 0.589   0.00   0.00   0.99  0.56  0.43  0.80   5.5  0.71  0.27  0.63
   15 127    50    50  13.0 14.32   5.6   7.6  0.00  1.85   5.7   3.7   0.0   0.0   0.00   0.11   0.00 0.105 .0152 1.527 3.191 0.588   0.00   0.00   0.96  0.56  0.44  0.80   5.5  0.71  0.26  0.59
   15 128    51    51  15.5 14.45   5.8   7.7  0.00  1.94   5.7   3.7   0.0   0.0   0.00   0.13   0.00 0.144 .0166 1.523 3.160 0.577   0.00   0.00   0.93  0.56  0.44  0.80   5.4  0.71  0.24  0.66
   15 129    52    52  14.2 14.57   5.9   7.7  0.00  2.00   5.7   3.7   0.1   0.0   0.00   0.12   0.00 0.179 .0178 1.520 3.124 0.564   0.00   0.00   0.90  0.56  0.44  0.79   5.4  0.71  0.13  0.57
   15 130    53    53  13.2 14.68   6.1   7.8  0.00  2.08   5.8   3.7   0.1   0.0   0.00   0.11   0.00 0.212 .0191 1.516 3.137 0.571   0.00   0.00   0.87  0.56  0.46  0.79   5.3  0.70  0.31  0.58
   15 131    54    54  13.7 14.79   6.1   7.9  0.00  2.18   5.7   3.7   0.1   0.0   0.00   0.12   0.00 0.247 .0204 1.512 3.080 0.549   0.00   0.00   0.83  0.56  0.45  0.79   5.3  0.70  0.14  0.63
   15 132    55    55  18.0 14.94   6.4   8.1  0.00  2.28   5.8   3.7   0.1   0.0   0.00   0.15   0.00 0.292 .0223 1.507 3.069 0.548   0.00   0.00   0.80  0.56  0.46  0.79   5.2  0.70  0.31  0.76
   15 133    56    56  17.8 15.09   6.5   8.2  0.00  2.35   5.8   3.8   0.1   0.0   0.00   0.03   0.00 0.301 .0242 1.505 2.976 0.526   0.00   0.00   0.78  0.55  0.46  0.79   5.2  0.70  0.12  0.86
   15 134    57    57  15.0 15.22   6.7   8.3  0.00  2.42   5.9   3.8   0.1   0.0   0.00   0.13   0.00 0.341 .0258 1.502 2.879 0.505   0.00   0.00   0.77  0.53  0.45  0.79   5.1  0.70  0.20  0.97
   15 135    58    58  11.4 15.31   6.9   8.5  0.00  2.48   6.0   3.9   0.1   0.0   0.00   0.10   0.00 0.372 .0272 1.500 2.878 0.506   0.00   0.00   0.77  0.53  0.46  0.79   5.1  0.69  0.26  0.73
   15 136    59    59  12.8 15.42   7.1   8.6  0.00  2.57   6.1   3.9   0.1   0.0   0.00   0.11   0.00 0.407 .0286 1.497 2.830 0.489   0.00   0.00   0.75  0.53  0.46  0.79   5.0  0.69  0.22  0.87
   15 137    60    60  14.1 15.54   7.3   8.9  0.00  2.64   6.2   4.0   0.1   0.0   0.00   0.12   0.00 0.445 .0304 1.494 2.827 0.491   0.00   0.00   0.75  0.53  0.48  0.79   5.0  0.69  0.31  0.89
   15 138    61    61  15.4 15.66   7.5   9.0  0.00  2.74   6.3   4.1   0.1   0.0   0.00   0.13   0.00 0.486 .0323 1.491 2.762 0.470   0.00   0.00   0.73  0.52  0.47  0.79   4.9  0.69  0.20  1.00
   15 139    62    62  13.9 15.78   7.8   9.3  0.00  2.81   6.5   4.2   0.1   0.0   0.00   0.11   0.00 0.524 .0341 1.489 2.775 0.474   0.00   0.00   0.73  0.53  0.48  0.79   4.9  0.68  0.33  0.89
   15 140    63    63   8.4 15.85   8.1   9.5  0.00  2.86   6.7   4.4   0.1   0.0   0.00   0.01   0.00 0.528 .0352 1.490 2.837 0.489   0.00   0.00   0.74  0.54  0.50  0.79   4.8  0.68  0.43  0.59
   15 141    64    64   9.8 15.93   8.3   9.7  0.00  2.92   6.8   4.5   0.1   0.0   0.00   0.02   0.00 0.533 .0365 1.489 2.793 0.473   0.00   0.00   0.73  0.54  0.48  0.79   4.8  0.68  0.22  0.83
   15 142    65    65   9.9 16.01   8.4   9.9  0.00  3.01   6.9   4.5   0.1   0.0   0.00   0.02   0.00 0.539 .0379 1.486 2.732 0.449   0.00   0.00   0.72  0.53  0.46  0.79   4.7  0.68  0.20  0.92
   15 143    66    66  11.7 16.11   8.6  10.1  0.00  3.10   7.0   4.6   0.1   0.0   0.00   0.02   0.00 0.545 .0395 1.484 2.614 0.422   0.00   0.00   0.70  0.51  0.44  0.79   4.7  0.68  0.15  1.26
   15 144    67    67  12.1 16.21   8.8  10.2  0.00  3.17   7.1   4.6   0.1   0.0   0.00   0.02   0.00 0.551 .0413 1.482 2.518 0.403   0.00   0.00   0.70  0.50  0.42  0.79   4.6  0.67  0.16  1.25
   15 145    68    68  14.6 30.15   9.2  10.6  0.00  3.25   7.3   4.8   0.1   0.0   0.00   0.02   0.00 0.559 .0435 1.479 2.458 0.393   0.00   0.00   0.70  0.50  0.41  0.79   4.5  0.67  0.24  1.40
   15 146    69    69  11.6 30.67   9.4  10.8  0.00  3.32   7.5   4.9   0.1   0.0   0.00   0.02   0.00 0.565 .0453 1.477 2.395 0.378   0.00   0.00   0.69  0.49  0.40  0.79   4.5  0.67  0.17  1.20
   15 147    70    70   9.2 31.08   9.7  11.1  0.00  3.41   7.7   5.0   0.1   0.0   0.00   0.01   0.00 0.570 .0467 1.475 2.388 0.372   0.00   0.00   0.69  0.49  0.40  0.79   4.4  0.67  0.28  1.05
   15 148    71    71  11.9 31.61   9.9  11.3  0.00  3.52   7.8   5.1   0.2   0.0   0.00   0.02   0.00 0.576 .0487 1.472 2.335 0.351   0.00   0.00   0.68  0.48  0.38  0.79   4.4  0.66  0.21  1.31
   15 149    72    72  15.6 32.30  10.1  11.5  0.00  3.64   7.8   5.1   0.2   0.0   0.00   0.13   0.00 0.629 .0512 1.470 2.243 0.327   0.00   0.00   0.66  0.47  0.36  0.79   4.3  0.66  0.14  1.50
   15 150    73    73  14.9 32.97  10.6  11.8  0.00  3.71   8.1   5.3   0.2   0.0   0.00   0.12   0.00 0.682 .0538 1.468 2.268 0.339   0.00   0.00   0.67  0.48  0.37  0.79   4.2  0.66  0.33  1.26
   15 151    74    74  15.4 33.65  10.7  11.9  0.00  3.80   8.1   5.2   0.2   0.0   0.00   0.13   0.00 0.737 .0565 1.466 2.205 0.324   0.00   0.00   0.65  0.48  0.36  0.79   4.1  0.65  0.12  1.35
   15 152    75    75  19.0 34.50  10.9  12.0  0.00  3.91   8.1   5.2   0.2   0.0   0.00   0.13   0.00 0.795 .0599 1.464 2.064 0.305   0.00   0.00   0.63  0.45  0.35  0.79   4.0  0.65  0.08  2.03
   15 153    76    76  19.8 35.37  11.2  12.3  0.00  4.00   8.3   5.3   0.2   0.0   0.00   0.13   0.00 0.856 .0636 1.462 1.976 0.296   0.00   0.00   0.63  0.44  0.34  0.79   3.9  0.65  0.14  2.04
   15 154    77    77  20.5 36.28  11.5  12.5  0.00  4.10   8.4   5.4   0.2   0.0   0.00   0.13   0.00 0.920 .0674 1.459 1.901 0.287   0.00   0.00   0.62  0.44  0.33  0.79   3.8  0.64  0.15  2.02
   15 155    78    78  19.7 37.16  11.7  12.7  0.00  4.20   8.5   5.4   0.2   0.0   0.00   0.12   0.00 0.986 .0712 1.457 1.836 0.278   0.00   0.00   0.61  0.43  0.33  0.79   3.7  0.64  0.14  1.95
   15 156    79    79  21.8 38.12  12.0  12.9  0.00  4.29   8.6   5.5   0.2   0.0   0.00   0.12   0.00 1.056 .0755 1.455 1.796 0.274   0.00   0.00   0.61  0.43  0.33  0.80   3.6  0.63  0.17  1.88
   15 157    80    80  21.8 39.09  12.3  13.1  0.00  4.40   8.7   5.6   0.3   0.0   0.00   0.12   0.00 1.128 .0799 1.453 1.739 0.264   0.00   0.00   0.59  0.43  0.32  0.80   3.5  0.63  0.13  1.92
   15 158    81    81  21.5 40.04  12.6  13.4  0.00  4.48   8.9   5.7   0.3   0.0   0.00   0.12   0.00 1.201 .0843 1.451 1.657 0.258   0.00   0.00   0.59  0.41  0.32  0.80   3.5  0.62  0.13  2.49
   15 159    82    82  16.1 40.71  12.9  13.6  0.00  4.55   9.1   5.7   0.3   0.0   0.00   0.14   0.09 1.201 .0877 1.450 1.713 0.282   0.00   0.00   0.59  0.44  0.36  0.80   3.3  0.62  0.39  0.74
   15 160    83    83  12.3 41.23  13.4  14.1  0.00  4.64   9.5   5.9   0.4   0.0   0.00   0.13   0.17 1.201 .0903 1.465 1.804 0.323   0.00   0.00   0.61  0.46  0.42  0.81   3.3  0.61  0.78  0.60
   15 161    84    84  14.7 41.84  13.9  14.6  0.00  4.76   9.8   6.0   0.5   0.0   0.00   0.15   0.25 1.201 .0935 1.479 1.887 0.368   0.00   0.00   0.62  0.49  0.48  0.82   3.1  0.61  0.75  0.65
   15 162    85    85  18.3 42.60  14.4  15.2  0.00  4.91  10.2   6.1   0.7   0.0   0.00   0.17   0.34 1.201 .0975 1.499 1.979 0.422   0.00   0.00   0.63  0.53  0.56  0.83   3.0  0.60  0.93  0.61
   15 163    86    86  20.9 43.47  14.7  15.4  0.00  5.02  10.4   6.2   0.8   0.0   0.00   0.06   0.37 1.201 0.102 1.495 2.022 0.420   0.00   0.00   0.62  0.55  0.57  0.83   2.9  0.59  0.38  0.66
   15 164    87    87  20.1 44.31  15.1  15.8  0.00  5.13  10.6   6.3   0.9   0.0   0.00   0.06   0.39 1.201 0.107 1.495 2.071 0.430   0.00   0.00   0.61  0.57  0.60  0.83   2.7  0.58  0.56  0.69
   15 165    88    88  20.1 45.15  15.3  16.0  0.00  5.22  10.8   6.3   0.9   0.0   0.00   0.06   0.42 1.201 0.111 1.492 2.102 0.421   0.00   0.00   0.60  0.59  0.60  0.83   2.6  0.57  0.38  0.65
   15 166    89    89  15.1 45.78  15.7  16.4  0.00  5.32  11.1   6.4   1.0   0.0   0.00   0.05   0.44 1.201 0.115 1.504 2.161 0.440   0.00   0.00   0.61  0.62  0.64  0.84   2.5  0.57  0.80  0.50
   15 167    90    90  15.2 46.41  16.2  16.9  0.00  5.47  11.5   6.5   1.2   0.0   0.00   0.05   0.46 1.201 0.118 1.519 2.220 0.465   0.00   0.00   0.61  0.65  0.69  0.85   2.4  0.56  0.89  0.59
   15 168    91    91  14.8 47.03  16.6  17.3  0.00  5.59  11.7   6.6   1.3   0.0   0.00   0.05   0.48 1.201 0.122 1.523 2.263 0.472   0.00   0.00   0.61  0.67  0.72  0.85   2.3  0.56  0.68  0.59
   15 169    92    92  13.2 47.58  17.1  17.8  0.00  5.72  12.0   6.7   1.5   0.0   0.00   0.05   0.50 1.201 0.125 1.532 2.307 0.484   0.00   0.00   0.60  0.70  0.75  0.86   2.2  0.55  0.78  0.55
   15 170    93    93  13.2 48.13  17.5  18.2  0.00  5.85  12.3   6.8   1.6   0.0   0.00   0.05   0.52 1.201 0.129 1.545 2.354 0.498   0.00   0.00   0.60  0.72  0.78  0.87   2.1  0.54  0.93  0.47
   15 171    94    94  12.2 48.64  18.0  18.7  0.00  6.00  12.7   6.9   1.8   0.0   0.00   0.05   0.53 1.201 0.132 1.561 2.400 0.514   0.00   0.00   0.60  0.74  0.82  0.88   2.1  0.54  1.17  0.47
   15 172    95    95  13.6 49.20  18.5  19.1  0.00  6.16  13.0   7.0   2.0   0.0   0.00   0.05   0.55 1.201 0.135 1.575 2.441 0.528   0.00   0.00   0.59  0.77  0.86  0.89   2.0  0.53  1.39  0.50
   15 173    96    96  16.2 49.88  18.9  19.6  0.00  6.31  13.3   7.0   2.2   0.0   0.00   0.06   0.57 1.201 0.139 1.588 2.477 0.537   0.00   0.00   0.59  0.80  0.89  0.90   1.9  0.53  0.97  0.48
   15 174    97    97  13.1 51.70  19.2  19.9  0.00  6.43  13.5   7.0   2.4   0.0   0.00   0.05   0.59 1.201 0.143 1.593 2.503 0.537   0.00   0.00   0.58  0.81  0.90  0.90   1.8  0.52  0.80  0.41
   15 175    98    98  13.9 54.02  19.7  20.4  0.00  6.60  13.8   7.1   2.6   0.0   0.00   0.05   0.60 1.201 0.147 1.605 2.532 0.545   0.00   0.00   0.57  0.83  0.92  0.91   1.7  0.52  1.12  0.49
   15 176    99    99  13.8 56.33  20.2  20.9  0.00  6.77  14.1   7.1   2.9   0.0   0.00   0.05   0.62 1.201 0.150 1.616 2.558 0.551   0.00   0.00   0.56  0.84  0.94  0.92   1.7  0.51  1.64  0.52
   15 177   100   100  16.5 59.08  20.7  21.4  0.00  6.91  14.5   7.1   3.2   0.0   0.00   0.06   0.63 1.201 0.155 1.623 2.580 0.550   0.00   0.00   0.54  0.86  0.95  0.92   1.6  0.51  0.90  0.51
   15 178   101   101  18.4 65.34  21.1  21.7  0.00  7.02  14.7   7.1   3.4   0.0   0.00   0.06   0.65 1.201 0.160 1.632 2.602 0.553   0.00   0.00   0.53  0.87  0.97  0.93   1.5  0.50  1.08  0.37
   15 179   102   102  17.9 70.43  21.4  22.1  0.00  7.11  15.0   7.1   3.6   0.0   0.00   0.06   0.67 1.201 0.165 1.639 2.620 0.555   0.00   0.00   0.52  0.89  0.99  0.93   1.5  0.50  1.55  0.35
   15 180   103   103  18.9 71.64  21.8  22.4  0.00  7.18  15.3   7.1   3.9   0.0   0.00   0.07   0.69 1.201 0.171 1.644 2.635 0.552   2.00   0.00   0.51  0.90  1.00  0.94   1.4  0.49  0.89  0.41
   15 181   104   104  20.6 72.96  22.1  22.7  0.00  7.25  15.5   7.1   3.9   0.3   0.02   0.07   0.71 1.201 0.176 1.651 2.649 0.546   2.00   0.00   0.49  0.92  1.00  0.94   1.4  0.49  1.81  0.27
   15 182   105   105  21.0 74.31  22.4  23.1  0.00  7.29  15.8   7.0   3.8   0.6   0.04   0.08   0.73 1.201 0.182 1.656 2.661 0.537   2.00   0.00   0.47  0.93  1.00  0.95   1.4  0.48  1.63  0.37
   15 183   106   106  22.2 75.73  23.0  23.6  0.00  7.34  16.3   7.0   3.8   1.2   0.08   0.08   0.76 1.201 0.189 1.661 2.670 0.528   2.00   0.00   0.45  0.95  1.00  0.95   1.3  0.48  1.28  0.54
   15 184   107   107  23.0 77.21  23.5  24.1  0.00  7.18  16.9   6.9   3.7   2.1   0.12   0.08   0.78 1.201 0.195 1.620 2.670 0.518   2.00   0.00   0.43  0.96  1.00  0.93   1.3  0.48  0.69  0.75
   15 185   108   108  24.6 78.78  23.9  24.6  0.00  6.88  17.7   6.7   3.6   3.2   0.18   0.09   0.81 1.201 0.203 1.549 2.621 0.508   2.00   0.00   0.41  0.96  1.00  0.89   1.3  0.47  0.44  1.03
   15 186   109   109  25.5 80.09  24.3  25.0  0.00  6.65  18.3   6.3   3.5   4.5   0.25   0.09   0.83 1.201 0.210 1.493 2.471 0.499   2.00   0.00   0.38  0.92  1.00  0.86   1.3  0.47  0.30  1.34
[...]
   15 120    43    43  10.4 13.54   4.4   6.4  0.00  1.44   5.0   3.3   0.0   0.0   0.00   0.00   0.00 .0433 .0082 1.555 3.525 0.771   0.00   0.00   1.07  0.60  0.51  0.81   5.8  0.72  0.57  0.54
   15 121    44    44   8.6 13.61   4.6   6.6  0.00  1.47   5.1   3.4   0.0   0.0   0.00   0.00   0.00 .0433 .0088 1.554 3.577 0.793   0.00   0.00   1.09  0.61  0.53  0.80   5.7  0.72  0.53  0.42
   15 122    45    45  10.5 13.70   4.8   6.8  0.00  1.52   5.3   3.5   0.0   0.0   0.00   0.00   0.00 .0433 .0095 1.549 3.543 0.767   0.00   0.00   1.07  0.61  0.52  0.80   5.7  0.72  0.33  0.54
   15 123    46    46  13.2 13.81   5.0   7.0  0.00  1.58   5.4   3.6   0.0   0.0   0.00   0.00   0.00 .0433 .0104 1.545 3.479 0.727   0.00   0.00   1.06  0.60  0.50  0.80   5.7  0.72  0.28  0.63
   15 124    47    47  17.5 13.96   5.2   7.1  0.00  1.64   5.5   3.7   0.0   0.0   0.00   0.00   0.00 .0433 .0117 1.541 3.372 0.676   0.00   0.00   1.04  0.59  0.48  0.80   5.6  0.72  0.22  0.74
   15 125    48    48  19.4 14.12   5.3   7.3  0.00  1.72   5.6   3.7   0.0   0.0   0.00   0.00   0.00 .0433 .0132 1.535 3.238 0.607   0.00   0.00   1.00  0.57  0.44  0.80   5.6  0.71  0.19  0.86
   15 126    49    49  11.6 14.21   5.5   7.4  0.00  1.78   5.7   3.7   0.0   0.0   0.00   0.10   0.00 .0722 .0141 1.532 3.200 0.589   0.00   0.00   0.99  0.56  0.43  0.80   5.5  0.71  0.27  0.63
   15 127    50    50  13.0 14.32   5.6   7.6  0.00  1.85   5.7   3.7   0.0   0.0   0.00   0.11   0.00 0.105 .0152 1.527 3.191 0.588   0.00   0.00   0.96  0.56  0.44  0.80   5.5  0.71  0.26  0.59
   15 128    51    51  15.5 14.45   5.8   7.7  0.00  1.94   5.7   3.7   0.0   0.0   0.00   0.13   0.00 0.144 .0166 1.523 3.160 0.577   0.00   0.00   0.93  0.56  0.44  0.80   5.4  0.71  0.24  0.66
   15 129    52    52  14.2 14.57   5.9   7.7  0.00  2.00   5.7   3.7   0.1   0.0   0.00   0.12   0.00 0.179 .0178 1.520 3.124 0.564   0.00   0.00   0.90  0.56  0.44  0.79   5.4  0.71  0.13  0.57
   15 130    53    53  13.2 14.68   6.1   7.8  0.00  2.08   5.8   3.7   0.1   0.0   0.00   0.11   0.00 0.212 .0191 1.516 3.137 0.571   0.00   0.00   0.87  0.56  0.46  0.79   5.3  0.70  0.31  0.58
   15 131    54    54  13.7 14.79   6.1   7.9  0.00  2.18   5.7   3.7   0.1   0.0   0.00   0.12   0.00 0.247 .0204 1.512 3.080 0.549   0.00   0.00   0.83  0.56  0.45  0.79   5.3  0.70  0.14  0.63
   15 132    55    55  18.0 14.94   6.4   8.1  0.00  2.28   5.8   3.7   0.1   0.0   0.00   0.15   0.00 0.292 .0223 1.507 3.069 0.548   0.00   0.00   0.80  0.56  0.46  0.79   5.2  0.70  0.31  0.76
   15 133    56    56  17.8 15.09   6.5   8.2  0.00  2.35   5.8   3.8   0.1   0.0   0.00   0.03   0.00 0.301 .0242 1.505 2.976 0.526   0.00   0.00   0.78  0.55  0.46  0.79   5.2  0.70  0.12  0.86
   15 134    57    57  15.0 15.22   6.7   8.3  0.00  2.42   5.9   3.8   0.1   0.0   0.00   0.13   0.00 0.341 .0258 1.502 2.879 0.505   0.00   0.00   0.77  0.53  0.45  0.79   5.1  0.70  0.20  0.97
   15 135    58    58  11.4 15.31   6.9   8.5  0.00  2.48   6.0   3.9   0.1   0.0   0.00   0.10   0.00 0.372 .0272 1.500 2.878 0.506   0.00   0.00   0.77  0.53  0.46  0.79   5.1  0.69  0.26  0.73
   15 136    59    59  12.8 15.42   7.1   8.6  0.00  2.57   6.1   3.9   0.1   0.0   0.00   0.11   0.00 0.407 .0286 1.497 2.830 0.489   0.00   0.00   0.75  0.53  0.46  0.79   5.0  0.69  0.22  0.87
   15 137    60    60  14.1 15.54   7.3   8.9  0.00  2.64   6.2   4.0   0.1   0.0   0.00   0.12   0.00 0.445 .0304 1.494 2.827 0.491   0.00   0.00   0.75  0.53  0.48  0.79   5.0  0.69  0.31  0.89
   15 138    61    61  15.4 15.66   7.5   9.0  0.00  2.74   6.3   4.1   0.1   0.0   0.00   0.13   0.00 0.486 .0323 1.491 2.762 0.470   0.00   0.00   0.73  0.52  0.47  0.79   4.9  0.69  0.20  1.00
   15 139    62    62  13.9 15.78   7.8   9.3  0.00  2.81   6.5   4.2   0.1   0.0   0.00   0.11   0.00 0.524 .0341 1.489 2.775 0.474   0.00   0.00   0.73  0.53  0.48  0.79   4.9  0.68  0.33  0.89
   15 140    63    63   8.4 15.85   8.1   9.5  0.00  2.86   6.7   4.4   0.1   0.0   0.00   0.01   0.00 0.528 .0352 1.490 2.837 0.489   0.00   0.00   0.74  0.54  0.50  0.79   4.8  0.68  0.43  0.59
   15 141    64    64   9.8 15.93   8.3   9.7  0.00  2.92   6.8   4.5   0.1   0.0   0.00   0.02   0.00 0.533 .0365 1.489 2.793 0.473   0.00   0.00   0.73  0.54  0.48  0.79   4.8  0.68  0.22  0.83
   15 142    65    65   9.9 16.01   8.4   9.9  0.00  3.01   6.9   4.5   0.1   0.0   0.00   0.02   0.00 0.539 .0379 1.486 2.732 0.449   0.00   0.00   0.72  0.53  0.46  0.79   4.7  0.68  0.20  0.92
   15 143    66    66  11.7 16.11   8.6  10.1  0.00  3.10   7.0   4.6   0.1   0.0   0.00   0.02   0.00 0.545 .0395 1.484 2.614 0.422   0.00   0.00   0.70  0.51  0.44  0.79   4.7  0.68  0.15  1.26
   15 144    67    67  12.1 16.21   8.8  10.2  0.00  3.17   7.1   4.6   0.1   0.0   0.00   0.02   0.00 0.551 .0413 1.482 2.518 0.403   0.00   0.00   0.70  0.50  0.42  0.79   4.6  0.67  0.16  1.25
   15 145    68    68  14.6 30.15   9.2  10.6  0.00  3.25   7.3   4.8   0.1   0.0   0.00   0.02   0.00 0.559 .0435 1.479 2.458 0.393   0.00   0.00   0.70  0.50  0.41  0.79   4.5  0.67  0.24  1.40
   15 146    69    69  11.6 30.67   9.4  10.8  0.00  3.32   7.5   4.9   0.1   0.0   0.00   0.02   0.00 0.565 .0453 1.477 2.395 0.378   0.00   0.00   0.69  0.49  0.40  0.79   4.5  0.67  0.17  1.20
   15 147    70    70   9.2 31.08   9.7  11.1  0.00  3.41   7.7   5.0   0.1   0.0   0.00   0.01   0.00 0.570 .0467 1.475 2.388 0.372   0.00   0.00   0.69  0.49  0.40  0.79   4.4  0.67  0.28  1.05
   15 148    71    71  11.9 31.61   9.9  11.3  0.00  3.52   7.8   5.1   0.2   0.0   0.00   0.02   0.00 0.576 .0487 1.472 2.335 0.351   0.00   0.00   0.68  0.48  0.38  0.79   4.4  0.66  0.21  1.31
   15 149    72    72  15.6 32.30  10.1  11.5  0.00  3.64   7.8   5.1   0.2   0.0   0.00   0.13   0.00 0.629 .0512 1.470 2.243 0.327   0.00   0.00   0.66  0.47  0.36  0.79   4.3  0.66  0.14  1.50
   15 150    73    73  14.9 32.97  10.6  11.8  0.00  3.71   8.1   5.3   0.2   0.0   0.00   0.12   0.00 0.682 .0538 1.468 2.268 0.339   0.00   0.00   0.67  0.48  0.37  0.79   4.2  0.66  0.33  1.26
   15 151    74    74  15.4 33.65  10.7  11.9  0.00  3.80   8.1   5.2   0.2   0.0   0.00   0.13   0.00 0.737 .0565 1.466 2.205 0.324   0.00   0.00   0.65  0.48  0.36  0.79   4.1  0.65  0.12  1.35
   15 152    75    75  19.0 34.50  10.9  12.0  0.00  3.91   8.1   5.2   0.2   0.0   0.00   0.13   0.00 0.795 .0599 1.464 2.064 0.305   0.00   0.00   0.63  0.45  0.35  0.79   4.0  0.65  0.08  2.03
   15 153    76    76  19.8 35.37  11.2  12.3  0.00  4.00   8.3   5.3   0.2   0.0   0.00   0.13   0.00 0.856 .0636 1.462 1.976 0.296   0.00   0.00   0.63  0.44  0.34  0.79   3.9  0.65  0.14  2.04
   15 154    77    77  20.5 36.28  11.5  12.5  0.00  4.10   8.4   5.4   0.2   0.0   0.00   0.13   0.00 0.920 .0674 1.459 1.901 0.287   0.00   0.00   0.62  0.44  0.33  0.79   3.8  0.64  0.15  2.02
   15 155    78    78  19.7 37.16  11.7  12.7  0.00  4.20   8.5   5.4   0.2   0.0   0.00   0.12   0.00 0.986 .0712 1.457 1.836 0.278   0.00   0.00   0.61  0.43  0.33  0.79   3.7  0.64  0.14  1.95
   15 156    79    79  21.8 38.12  12.0  12.9  0.00  4.29   8.6   5.5   0.2   0.0   0.00   0.12   0.00 1.056 .0755 1.455 1.796 0.274   0.00   0.00   0.61  0.43  0.33  0.80   3.6  0.63  0.17  1.88
   15 157    80    80  21.8 39.09  12.3  13.1  0.00  4.40   8.7   5.6   0.3   0.0   0.00   0.12   0.00 1.128 .0799 1.453 1.739 0.264   0.00   0.00   0.59  0.43  0.32  0.80   3.5  0.63  0.13  1.92
   15 158    81    81  21.5 40.04  12.6  13.4  0.00  4.48   8.9   5.7   0.3   0.0   0.00   0.12   0.00 1.201 .0843 1.451 1.657 0.258   0.00   0.00   0.59  0.41  0.32  0.80   3.5  0.62  0.13  2.49
   15 159    82    82  16.1 40.71  12.9  13.6  0.00  4.55   9.1   5.7   0.3   0.0   0.00   0.14   0.09 1.201 .0877 1.450 1.713 0.282   0.00   0.00   0.59  0.44  0.36  0.80   3.3  0.62  0.39  0.74
   15 160    83    83  12.3 41.23  13.4  14.1  0.00  4.64   9.5   5.9   0.4   0.0   0.00   0.13   0.17 1.201 .0903 1.465 1.804 0.323   0.00   0.00   0.61  0.46  0.42  0.81   3.3  0.61  0.78  0.60
   15 161    84    84  14.7 41.84  13.9  14.6  0.00  4.76   9.8   6.0   0.5   0.0   0.00   0.15   0.25 1.201 .0935 1.479 1.887 0.368   0.00   0.00   0.62  0.49  0.48  0.82   3.1  0.61  0.75  0.65
   15 162    85    85  18.3 42.60  14.4  15.2  0.00  4.91  10.2   6.1   0.7   0.0   0.00   0.17   0.34 1.201 .0975 1.499 1.979 0.422   0.00   0.00   0.63  0.53  0.56  0.83   3.0  0.60  0.93  0.61
   15 163    86    86  20.9 43.47  14.7  15.4  0.00  5.02  10.4   6.2   0.8   0.0   0.00   0.06   0.37 1.201 0.102 1.495 2.022 0.420   0.00   0.00   0.62  0.55  0.57  0.83   2.9  0.59  0.38  0.66
   15 164    87    87  20.1 44.31  15.1  15.8  0.00  5.13  10.6   6.3   0.9   0.0   0.00   0.06   0.39 1.201 0.107 1.495 2.071 0.430   0.00   0.00   0.61  0.57  0.60  0.83   2.7  0.58  0.56  0.69
   15 165    88    88  20.1 45.15  15.3  16.0  0.00  5.22  10.8   6.3   0.9   0.0   0.00   0.06   0.42 1.201 0.111 1.492 2.102 0.421   0.00   0.00   0.60  0.59  0.60  0.83   2.6  0.57  0.38  0.65
   15 166    89    89  15.1 45.78  15.7  16.4  0.00  5.32  11.1   6.4   1.0   0.0   0.00   0.05   0.44 1.201 0.115 1.504 2.161 0.440   0.00   0.00   0.61  0.62  0.64  0.84   2.5  0.57  0.80  0.50
   15 167    90    90  15.2 46.41  16.2  16.9  0.00  5.47  11.5   6.5   1.2   0.0   0.00   0.05   0.46 1.201 0.118 1.519 2.220 0.465   0.00   0.00   0.61  0.65  0.69  0.85   2.4  0.56  0.89  0.59
   15 168    91    91  14.8 47.03  16.6  17.3  0.00  5.59  11.7   6.6   1.3   0.0   0.00   0.05   0.48 1.201 0.122 1.523 2.263 0.472   0.00   0.00   0.61  0.67  0.72  0.85   2.3  0.56  0.68  0.59
   15 169    92    92  13.2 47.58  17.1  17.8  0.00  5.72  12.0   6.7   1.5   0.0   0.00   0.05   0.50 1.201 0.125 1.532 2.307 0.484   0.00   0.00   0.60  0.70  0.75  0.86   2.2  0.55  0.78  0.55
   15 170    93    93  13.2 48.13  17.5  18.2  0.00  5.85  12.3   6.8   1.6   0.0   0.00   0.05   0.52 1.201 0.129 1.545 2.354 0.498   0.00   0.00   0.60  0.72  0.78  0.87   2.1  0.54  0.93  0.47
   15 171    94    94  12.2 48.64  18.0  18.7  0.00  6.00  12.7   6.9   1.8   0.0   0.00   0.05   0.53 1.201 0.132 1.561 2.400 0.514   0.00   0.00   0.60  0.74  0.82  0.88   2.1  0.54  1.17  0.47
   15 172    95    95  13.6 49.20  18.5  19.1  0.00  6.16  13.0   7.0   2.0   0.0   0.00   0.05   0.55 1.201 0.135 1.575 2.441 0.528   0.00   0.00   0.59  0.77  0.86  0.89   2.0  0.53  1.39  0.50
   15 173    96    96  16.2 49.88  18.9  19.6  0.00  6.31  13.3   7.0   2.2   0.0   0.00   0.06   0.57 1.201 0.139 1.588 2.477 0.537   0.00   0.00   0.59  0.80  0.89  0.90   1.9  0.53  0.97  0.48
   15 174    97    97  13.1 51.70  19.2  19.9  0.00  6.43  13.5   7.0   2.4   0.0   0.00   0.05   0.59 1.201 0.143 1.593 2.503 0.537   0.00   0.00   0.58  0.81  0.90  0.90   1.8  0.52  0.80  0.41
   15 175    98    98  13.9 54.02  19.7  20.4  0.00  6.60  13.8   7.1   2.6   0.0   0.00   0.05   0.60 1.201 0.147 1.605 2.532 0.545   0.00   0.00   0.57  0.83  0.92  0.91   1.7  0.52  1.12  0.49
   15 176    99    99  13.8 56.33  20.2  20.9  0.00  6.77  14.1   7.1   2.9   0.0   0.00   0.05   0.62 1.201 0.150 1.616 2.558 0.551   0.00   0.00   0.56  0.84  0.94  0.92   1.7  0.51  1.64  0.52
   15 177   100   100  16.5 59.08  20.7  21.4  0.00  6.91  14.5   7.1   3.2   0.0   0.00   0.06   0.63 1.201 0.155 1.623 2.580 0.550   0.00   0.00   0.54  0.86  0.95  0.92   1.6  0.51  0.90  0.51
   15 178   101   101  18.4 65.34  21.1  21.7  0.00  7.02  14.7   7.1   3.4   0.0   0.00   0.06   0.65 1.201 0.160 1.632 2.602 0.553   0.00   0.00   0.53  0.87  0.97  0.93   1.5  0.50  1.08  0.37
   15 179   102   102  17.9 70.43  21.4  22.1  0.00  7.11  15.0   7.1   3.6   0.0   0.00   0.06   0.67 1.201 0.165 1.639 2.620 0.555   0.00   0.00   0.52  0.89  0.99  0.93   1.5  0.50  1.55  0.35
   15 180   103   103  18.9 71.64  21.8  22.4  0.00  7.18  15.3   7.1   3.9   0.0   0.00   0.07   0.69 1.201 0.171 1.644 2.635 0.552   2.00   0.00   0.51  0.90  1.00  0.94   1.4  0.49  0.89  0.41
   15 181   104   104  20.6 72.96  22.1  22.7  0.00  7.25  15.5   7.1   3.9   0.3   0.02   0.07   0.71 1.201 0.176 1.651 2.649 0.546   2.00   0.00   0.49  0.92  1.00  0.94   1.4  0.49  1.81  0.27
   15 182   105   105  21.0 74.31  22.4  23.1  0.00  7.29  15.8   7.0   3.8   0.6   0.04   0.08   0.73 1.201 0.182 1.656 2.661 0.537   2.00   0.00   0.47  0.93  1.00  0.95   1.4  0.48  1.63  0.37
   15 183   106   106  22.2 75.73  23.0  23.6  0.00  7.33  16.3   7.0   3.8   1.2   0.08   0.08   0.76 1.201 0.189 1.660 2.669 0.528   2.00   0.00   0.45  0.95  1.00  0.95   1.3  0.48  0.98  0.54
   15 184   107   107  23.0 77.21  23.4  24.1  0.00  7.11  16.9   6.9   3.7   2.1   0.12   0.08   0.78 1.201 0.195 1.606 2.669 0.518   2.00   0.00   0.43  0.96  1.00  0.92   1.3  0.48  0.62  0.75
   15 185   108   108  24.6 78.78  23.9  24.5  0.00  6.83  17.7   6.7   3.6   3.2   0.18   0.09   0.81 1.201 0.203 1.538 2.615 0.508   2.00   0.00   0.41  0.96  1.00  0.89   1.3  0.47  0.43  1.03
   15 186   109   109  25.5 80.09  24.2  24.8  0.00  6.61  18.2   6.2   3.5   4.5   0.25   0.09   0.83 1.201 0.210 1.484 2.441 0.499   2.00   0.00   0.38  0.91  1.00  0.86   1.3  0.47  0.23  1.34
   15 187   110   110  23.2 80.42  24.6  25.2  0.00  6.43  18.8   5.7   3.4   6.0   0.32   0.02   0.84 1.201 0.217 1.441 2.260 0.489   2.00   0.00   0.35  0.85  0.99  0.83   1.2  0.47  0.30  1.50
   15 188   111   111  25.1 80.78  25.1  25.7  0.00  6.29  19.4   5.1   3.3   7.6   0.39   0.02   0.85 1.201 0.224 1.405 2.017 0.476   2.00   0.00   0.32  0.77  0.97  0.81   1.2  0.47  0.24  1.73
   15 189   112   112  17.4 81.03  25.5  26.1  0.00  6.18  20.0   4.8   3.3   8.7   0.44   0.01   0.86 1.201 0.229 1.379 1.898 0.470   2.00   0.00   0.30  0.74  0.96  0.80   1.2  0.47  0.38  1.28
   15 190   113   113  13.9 81.23  26.2  26.8  0.00  6.09  20.7   4.7   3.3   9.4   0.46   0.01   0.86 1.201 0.233 1.358 1.890 0.469   2.00   0.00   0.30  0.74  0.96  0.79   1.2  0.47  0.65  0.98
   15 191   114   114  14.9 81.44  26.7  27.3  0.00  6.02  21.3   4.6   3.3  10.3   0.48   0.01   0.86 1.201 0.237 1.340 1.835 0.466   2.00   0.00   0.29  0.73  0.96  0.78   1.2  0.47  0.52  1.09
   15 192   115   115  18.3 81.70  27.0  27.6  0.00  5.97  21.7   4.1   3.2  11.5   0.53   0.01   0.87 1.201 0.242 1.325 1.642 0.456   2.00   0.00   0.26  0.66  0.94  0.77   1.2  0.47  0.22  1.39
   15 193   116   116  20.5 82.00  27.4  27.9  0.00  5.93  22.0   3.6   3.1  12.7   0.58   0.01   0.88 1.201 0.248 1.314 1.433 0.445   1.99   0.00   0.24  0.58  0.93  0.76   1.2  0.47  0.22  1.55
   15 194   117   117  18.4 82.26  27.7  28.3  0.00  5.89  22.4   3.1   3.1  13.8   0.61   0.01   0.88 1.201 0.254 1.307 1.267 0.436   1.98   0.00   0.22  0.52  0.91  0.76   1.2  0.47  0.23  1.45
   15 195   118   118  20.6 82.55  28.0  28.6  0.00  5.86  22.7   2.7   3.0  14.6   0.64   0.06   0.93 1.201 0.260 1.301 1.133 0.429   1.92   0.00   0.21  0.47  0.90  0.76   1.1  0.47  0.20  1.62
   15 196   119   119  21.7 82.86  28.3  28.9  0.00  5.84  23.0   2.4   3.0  15.4   0.67   0.04   0.98 1.201 0.266 1.296 1.027 0.423   1.86   0.00   0.20  0.44  0.90  0.76   1.1  0.47  0.17  1.65
   15 197   120   120  22.4 83.18  28.6  29.1  0.00  5.82  23.3   2.2   2.9  16.1   0.69   0.04   1.03 1.201 0.272 1.292 0.941 0.418   1.78   0.00   0.19  0.41  0.89  0.75   1.1  0.47  0.15  1.71
   15 198   121   121  24.6 83.53  28.8  29.4  0.00  5.81  23.6   2.0   2.9  16.6   0.70   0.03   1.08 1.201 0.279 1.288 0.873 0.415   1.70   0.00   0.19  0.38  0.89  0.75   1.1  0.46  0.13  1.87
   15 199   122   122  22.0 83.85  29.0  29.6  0.00  5.79  23.8   1.8   2.9  17.1   0.72   0.02   1.13 1.201 0.286 1.286 0.818 0.412   1.63   0.00   0.18  0.37  0.89  0.75   1.0  0.46  0.13  1.70
   15 200   123   123  22.4 84.17  29.2  29.8  0.00  5.78  24.0   1.7   2.9  17.4   0.73   0.02   1.18 1.201 0.292 1.284 0.775 0.409   1.56   0.00   0.18  0.35  0.89  0.75   1.0  0.46  0.12  1.73
   15 201   124   124  23.3 84.50  29.4  29.9  0.00  5.77  24.2   1.6   2.9  17.8   0.74   0.01   1.22 1.201 0.299 1.282 0.740 0.408   1.49   0.00   0.18  0.34  0.90  0.75   1.0  0.46  0.10  1.79
   15 202   125   125  24.2 84.85  29.6  30.1  0.00  5.75  24.4   1.5   2.8  18.1   0.74   0.01   1.27 1.201 0.306 1.281 0.712 0.406   1.43   0.00   0.18  0.34  0.90  0.75   1.0  0.46  0.10  1.85
   15 203   126   126  25.0 85.20  29.8  30.3  0.00  5.74  24.5   1.4   2.8  18.3   0.75   0.01   1.31 1.201 0.313 1.279 0.689 0.405   1.36   0.00   0.18  0.33  0.90  0.75   0.9  0.46  0.09  1.89
   15 204   127   127  21.4 85.51  29.9  30.4  0.00  5.73  24.7   1.3   2.8  18.5   0.75   0.01   1.36 1.201 0.319 1.278 0.672 0.404   1.31   0.00   0.18  0.33  0.91  0.75   0.9  0.46  0.09  1.65
   15 205   128   128  22.0 85.82  30.0  30.5  0.00  5.72  24.8   1.2   2.8  18.7   0.75   0.01   1.40 1.201 0.325 1.277 0.657 0.403   1.26   0.00   0.18  0.33  0.91  0.75   0.9  0.46  0.08  1.68
   15 206   129   129  18.8 86.09  30.2  30.7  0.00  5.71  25.0   1.2   2.8  18.9   0.76   0.00   1.44 1.201 0.331 1.276 0.646 0.402   1.23   0.00   0.19  0.33  0.92  0.75   0.9  0.46  0.09  1.48
   15 207   130   130  15.6 86.31  30.3  30.8  0.00  5.70  25.1   1.2   2.8  19.1   0.76   0.00   1.48 1.201 0.335 1.275 0.637 0.402   1.20   0.00   0.19  0.33  0.92  0.75   0.9  0.46  0.10  1.24
   15 208   131   131  18.3 86.58  30.4  30.9  0.00  5.69  25.2   1.1   2.8  19.2   0.76   0.00   1.52 1.201 0.340 1.274 0.629 0.402   1.17   0.00   0.19  0.33  0.92  0.75   0.8  0.45  0.08  1.43
   15 209   132   132  17.5 86.82  30.6  31.1  0.00  5.69  25.4   1.1   2.8  19.4   0.76   0.00   1.55 1.201 0.345 1.273 0.623 0.401   1.14   0.00   0.19  0.33  0.93  0.75   0.8  0.45  0.15  1.37
   15 210   133   133  15.0 87.04  30.8  31.3  0.00  5.68  25.6   1.0   2.8  19.6   0.77   0.00   1.59 1.201 0.350 1.272 0.619 0.401   1.12   0.00   0.19  0.33  0.93  0.75   0.8  0.45  0.16  1.15
   15 211   134   134  14.6 87.25  30.9  31.4  0.00  5.67  25.7   1.0   2.8  19.8   0.77   0.00   1.67 1.201 0.354 1.272 0.615 0.401   1.11   0.00   0.20  0.34  0.94  0.75   0.8  0.45  0.14  1.10
   15 212   135   135  16.4 87.48  31.0  31.5  0.00  5.66  25.8   0.9   2.8  19.9   0.77   0.00   1.75 1.201 0.358 1.271 0.612 0.401   1.08   0.00   0.20  0.34  0.94  0.75   0.8  0.45  0.08  1.27
   15 213   136   136  17.0 87.72  31.1  31.6  0.00  5.66  25.9   0.9   2.8  20.0   0.77   0.00   1.84 1.201 0.363 1.270 0.610 0.401   1.06   0.00   0.20  0.34  0.95  0.75   0.7  0.45  0.07  1.29
   15 214   137   137  19.0 88.00  31.2  31.7  0.00  5.65  26.0   0.8   2.8  20.1   0.77   0.00   1.93 1.201 0.368 1.270 0.608 0.400   1.03   0.00   0.21  0.35  0.95  0.75   0.7  0.44  0.06  1.41
   15 215   138   138  19.8 88.28  31.3  31.7  0.00  5.64  26.1   0.7   2.8  20.2   0.77   0.00   2.02 1.201 0.374 1.269 0.606 0.400   1.00   0.00   0.21  0.36  0.96  0.75   0.7  0.44  0.05  1.45
   15 216   139   139  21.9 88.59  31.4  31.8  0.00  5.63  26.2   0.7   2.8  20.3   0.77   0.00   2.15 1.201 0.380 1.268 0.605 0.400   0.97   0.00   0.22  0.36  0.97  0.75   0.7  0.44  0.05  1.56
   15 217   140   140  21.8 88.90  31.4  31.9  0.00  5.62  26.3   0.6   2.8  20.3   0.77   0.00   2.28 1.201 0.386 1.267 0.604 0.400   0.94   0.00   0.22  0.37  0.97  0.75   0.6  0.43  0.05  1.54
   15 218   141   141  23.4 89.24  31.5  31.9  0.00  5.61  26.3   0.5   2.8  20.4   0.78   0.00   2.41 1.201 0.393 1.267 0.603 0.400   0.92   0.00   0.23  0.38  0.98  0.75   0.6  0.43  0.04  1.63
   15 219   142   142  24.8 89.59  31.6  32.0  0.00  5.60  26.4   0.4   2.7  20.5   0.78   0.00   2.54 1.201 0.400 1.266 0.601 0.400   0.89   0.00   0.24  0.39  0.99  0.75   0.6  0.43  0.04  1.71
   15 220   143   143  25.2 89.95  31.6  32.1  0.00  5.59  26.5   0.4   2.7  20.6   0.78   0.00   2.66 1.201 0.407 1.265 0.600 0.400   0.86   0.00   0.24  0.40  1.00  0.75   0.5  0.42  0.04  1.72
   15 221   144   144  24.7 91.05  31.7  32.1  0.00  5.58  26.5   0.3   2.7  20.6   0.78   0.00   2.78 1.201 0.414 1.264 0.600 0.400   0.85   0.00   0.25  0.41  1.00  0.75   0.5  0.42  0.04  1.68
