$GROWTH ASPECTS OUTPUT FILE

*DSSAT Cropping System Model Ver. 4.8.5.000 -release  OCT 24, 2025 14:14:59

*RUN   1        : 1                         CSCER048 TUDU1501    1
 MODEL          : CSCER048 - Wheat
 EXPERIMENT     : TUDU1501 WH
 DATA PATH      :
 TREATMENT  1   : 1                         CSCER048
  
@YEAR DOY   DAS   DAP TMEAN TKILL  GSTD  L#SD PARID PARUD  AWAD  LAID  SAID  CAID  TWAD SDWAD  RWAD  CWAD  LWAD  SWAD  HWAD  HIAD CHWAD  EWAD RSWAD SNWPD SNWLD SNWSD  RS%D  H#AD  HWUD  T#AD  SLAD  RDPD  PTFD  SWXD WAVRD WUPRD  WFTD  WFPD  WFGD  NFTD  NFPD  NFGD NUPRD  TFPD  TFGD VRNFD DYLFD
   15  77     0     0   7.7  -6.0  0.00  0.00  0.00  0.00   0.0  0.00 0.000  0.00   107   107     0     0     0     0     0  0.00     0     0     0     0     0     0   0.0     0     0   375   -99  0.03  0.00   3.0  99.9  1.00  0.00  0.00  0.00  0.00  0.00  0.00   0.0  0.00  0.24  1.00  0.00
   15  78     1     1   6.3  -6.0  2.65  0.00  0.00  0.00   0.0  0.00 0.000  0.00   107   107     0     0     0     0     0  0.00     0     0     0     0     0     0   0.0     0     0   375   -99  0.03  0.00   2.5  99.9  1.00  0.00  0.00  0.00  0.00  0.00  0.00   0.0  0.00  0.37  1.00  0.00
   15  79     2     2   5.4  -6.0  4.83  0.00  0.00  0.00   0.0  0.00 0.000  0.00   107   107     0     0     0     0     0  0.00     0     0     0     0     0     0   0.0     0     0   375   -99  0.03  0.00   2.1  99.9  1.00  0.00  0.00  0.00  0.00  0.00  0.00   0.0  0.00  0.46  1.00  0.00
   15  80     3     3   5.3  -6.0  5.99  0.00  0.00  0.00   0.0  0.00 0.000  0.00   107   107     0     0     0     0     0  0.00     0     0     0     0     0     0   0.0     0     0   375   -99  0.03  0.00   2.9  99.9  1.00  0.00  0.00  0.00  0.00  0.00  0.00   0.0  0.00  0.47  1.00  0.00
   15  81     4     4   4.1  -6.9  6.77  0.00  0.00  0.00   0.0  0.00 0.000  0.00   107   106     0     0     0     0     0  0.00     0     0     0     0     0     0   0.0     0     0   375   -99  0.03  0.00   3.5  99.9  1.00  0.00  0.00  0.00  0.00  0.00  0.00   0.0  0.00  0.59  0.95  0.00
   15  82     5     5   2.8  -7.8  7.21  0.00  0.00  0.00   0.0  0.00 0.000  0.00   106   106     1     0     0     0     0  0.00     0     0     0     0     0 .0000   0.0     0     0   375   -99  0.04  0.00   3.3  99.9  1.00  0.00  0.00  0.00  0.00  0.00  0.00   0.8  0.00  0.73  0.90  0.00
   15  83     6     6   6.6  -7.9  8.61  0.00  0.00  0.00   0.0  0.00 0.000  0.00   106   105     1     0     0     0     0  0.00     0     0     0     0     0 .0002   0.0     0     0   375   -99  0.05  0.00   3.5  99.9  1.00  0.00  0.00  0.00  0.00  0.00  0.00   0.4  0.00  0.34  0.85  0.00
   15  84     7     7   8.9  -7.7 10.00  0.00  0.00  0.00   0.0  0.00 0.000  0.00   106   105     2     0     0     0     0  0.00     0     0     0     0     0 .0007   0.0     0     0   375   -99  0.06  0.00   4.3  99.9  1.00  0.00  0.00  0.00  0.00  0.00  0.00   0.4  0.00  0.11  0.81  0.00
   15  85     8     8   6.3  -8.3 10.10  0.11  0.01  0.00   0.0  0.01 0.001  0.01   106   100     2     5     3     2     0  0.00     0     0     0     0     0 .0012   0.0     0     0   375   400  0.07  0.75   5.5  99.9  1.00  0.00  0.00  0.00  0.00  0.00  0.00   0.0  0.00  0.37  0.76  0.41
   15  86     9     9   6.5  -9.0 10.21  0.21  0.02  2.21   1.1  0.03 0.002  0.03   108    95     3    10     6     4     0  0.00     0     0     1     0     0 .0019   8.2     0     0   375   399  0.08  0.75   7.0  99.9  4.30  0.00  0.00  0.00  0.00  0.00  0.00   0.0  0.00  0.35  0.71  0.40
   15  87    10    10   6.4  -9.6 10.32  0.32  0.03  2.21   3.3  0.04 0.003  0.04   111    90     3    18    10     8     0  0.00     0     0     3     0     0 .0028  19.1     0     0   375   399  0.09  0.75   7.4  99.9  1.73  0.00  0.00  0.00  0.00  0.00  0.00   0.0  0.00  0.36  0.66  0.40
   15  88    11    11   9.5  -9.7 10.48  0.48  0.05  2.21   3.8  0.07 0.006  0.07   114    79     4    31    17    14     0  0.00     0     0     6     0     0 .0043  20.0     0     0   375   399  0.10  0.75   9.1  99.9  1.71  0.00  0.00  0.00  0.00  0.00  0.00   0.0  0.00  0.05  0.63  0.39
   15  89    12    12   6.7 -10.3 10.59  0.59  0.07  2.21   6.4  0.08 0.007  0.09   120    74     5    41    20    21     0  0.00     0     0    11     0     0 .0055  26.8     0     0   375   399  0.11  0.75  15.7  99.9  1.33  0.00  0.00  0.00  0.00  0.00  0.00   0.1  0.00  0.33  0.58  0.38
   15  90    13    13   7.8 -10.6 10.72  0.72  0.08  1.92   9.9  0.09 0.008  0.10   128    69     6    53    23    30     0  0.00     0     0    18     0     0 .0074  34.5     0     0   375   399  0.12  0.74  18.1  99.9  0.87  0.26  0.13  0.33  0.00  0.00  0.00   0.1  0.00  0.23  0.53  0.37
   15  91    14    14   3.3 -11.5 10.77  0.77  0.08  1.33   5.7  0.10 0.008  0.10   134    68     7    58    24    34     0  0.00     0     0    22     0     0 .0085  38.5     0     0   375   399  0.12  0.74  19.8  99.9  1.58  0.00  0.00  0.00  0.10  0.10  0.10   0.5  0.33  0.67  0.48  0.37
   15  92    15    15   3.1 -12.4 10.82  0.82  0.08  1.21   5.2  0.10 0.009  0.11   138    67     8    63    25    39     0  0.00     0     0    26     0     0 .0096  41.7     0     0   375   399  0.13  0.74  21.8  99.9  1.81  0.00  0.00  0.00  0.11  0.11  0.11   0.7  0.38  0.69  0.43  0.36
   15  93    16    16   4.2 -13.3 10.89  0.89  0.08  1.62   9.9  0.10 0.009  0.11   147    65    10    72    26    47     0  0.00     0     0    34     0     0 .0112  46.6     0     0   375   399  0.13  0.74  18.9  99.9  1.34  0.00  0.00  0.00  0.12  0.12  0.12   0.4  0.17  0.58  0.38  0.35
   15  94    17    17   3.6 -14.2 10.95  0.95  0.09  1.36   4.9  0.11 0.009  0.12   152    64    10    77    27    51     0  0.00     0     0    37     0     0 .0129  48.3     0     0   375   399  0.14  0.74  21.8  99.9  2.86  0.00  0.00  0.00  0.15  0.15  0.15   0.7  0.28  0.64  0.33  0.35
   15  95    18    18   2.5 -15.0 10.99  1.00  0.09  0.92   5.6  0.11 0.009  0.12   157    63    11    82    27    55     0  0.00     0     0    41     0     0 .0142  50.5     0     0   375   398  0.14  0.74  19.4  99.9  1.86  0.00  0.00  0.00  0.15  0.15  0.15   1.1  0.51  0.75  0.28  0.34
   15  96    19    19   1.9 -15.0 11.03  1.03  0.09  0.72   4.4  0.11 0.009  0.12   161    63    12    86    27    58     0  0.00     0     0    45     0     0 .0153  52.2     0     0   375   398  0.14  0.74  18.7  99.9  2.06  0.00  0.00  0.00  0.14  0.14  0.14   1.6  0.62  0.81  0.23  0.33
   15  97    20    20   2.9 -15.0 11.07  1.07  0.09  1.11   8.1  0.11 0.010  0.12   168    62    13    93    28    65     0  0.00     0     0    51     0     0 .0170  54.7     0     0   375   398  0.15  0.74  18.2  92.7  1.78  0.00  0.00  0.00  0.13  0.13  0.13   0.9  0.42  0.71  0.18  0.32
   15  98    21    21   6.6 -15.0 11.18  1.18  0.10  1.94  15.7  0.13 0.011  0.14   182    57    16   109    31    78     0  0.00     0     0    62     0     0 .0213  57.0     0     0   375   397  0.16  0.74  18.1  74.1  1.58  0.00  0.00  0.00  0.12  0.12  0.12   1.1  0.00  0.34  0.13  0.32
   15  99    22    22  10.2 -15.0 11.35  1.35  0.12  1.98  19.2  0.16 0.014  0.17   199    48    19   133    40    93     0  0.00     0     0    74     0     0 .0293  55.5     0     0   375   396  0.17  0.74  18.5  57.4  1.42  0.00  0.00  0.00  0.10  0.10  0.10   0.5  0.00  0.00  0.10  0.31
   15 100    23    23  11.4 -15.0 11.54  1.54  0.15  1.78  24.0  0.19 0.016  0.20   220    40    22   158    48   110     0  0.00     0     0    87     0     0 .0398  54.9     0     0   375   394  0.18  0.74  19.0  41.1  1.18  0.00  0.00  0.09  0.19  0.19  0.19   0.5  0.00  0.00  0.08  0.30
   15 101    24    24  11.7 -15.0 11.74  1.74  0.17  1.62  21.2  0.22 0.019  0.24   239    35    26   179    55   124     0  0.00     0     0    96     0     0 .0529  53.8     0     0   375   393  0.20  0.73  19.7  44.3  1.48  0.00  0.00  0.00  0.27  0.27  0.27   0.4  0.00  0.00  0.06  0.30
   15 102    25    25  12.3 -15.0 11.94  1.94  0.18  1.01  15.5  0.24 0.021  0.26   253    31    28   194    61   133     0  0.00     0     0   103     0     0 .0687  53.1     0     0   375   392  0.21  0.72  20.6  39.1  0.68  0.65  0.32  0.48  0.32  0.32  0.32   0.3  0.00  0.00  0.04  0.29
   15 103    26    26  11.9 -15.0 12.07  2.07  0.19  0.75  12.7  0.25 0.022  0.27   263    28    31   205    63   142     0  0.00     0     0   111     0 0.904 .0855  54.3     0     0   375   392  0.23  0.71  21.6  37.8  0.54  0.93  0.46  0.59  0.36  0.36  0.36   0.3  0.00  0.00  0.02  0.28
   15 104    27    27  12.1 -15.0 12.17  2.17  0.19  0.69  12.1  0.25 0.022  0.27   273    26    33   215    64   151     0  0.00     0     0   119     0 1.833 0.104  55.6     0     0   375   391  0.24  0.71  22.6  37.9  0.50  1.00  0.50  0.61  0.38  0.38  0.38   0.3  0.00  0.00  0.00  0.28
   15 105    28    28  14.4 -15.0 12.29  2.29  0.19  0.56  11.6  0.25 0.022  0.28   282    24    35   223    65   158     0  0.00     0     0   127     0 2.779 0.127  56.6     0     0   375   390  0.26  0.70  24.1  32.1  0.41  1.00  0.59  0.69  0.38  0.38  0.38   0.2  0.00  0.00  0.00  0.27
   15 106    29    29  15.7 -15.0 12.42  2.42  0.20  0.66  11.6  0.26 0.023  0.28   292    23    37   232    67   165     0  0.00     0     0   132     0 3.738 0.155  57.1     0     0   375   389  0.28  0.71  26.1  40.6  0.49  1.00  0.51  0.62  0.39  0.39  0.39   0.1  0.00  0.00  0.00  0.27
   15 107    30    30  10.9 -15.0 12.51  2.51  0.20  0.77  13.3  0.26 0.023  0.29   302    23    39   241    68   173     0  0.00     0     0   140     0 4.722 0.175  58.0     0     0   375   387  0.30  0.72  47.7  84.8  0.59  0.83  0.41  0.55  0.41  0.41  0.41   0.6  0.00  0.00  0.00  0.26
   15 108    31    31   5.5 -15.0 12.56  2.56  0.20  1.35  21.7  0.27 0.024  0.29   322    22    42   257    69   188     0  0.00     0     0   154     0 4.722 0.185  60.0     0     0   375   387  0.30  0.72  42.3  89.8  2.43  0.00  0.00  0.00  0.39  0.39  0.39   2.0  0.00  0.45  0.00  0.25
   15 109    32    32   6.4 -15.0 12.61  2.61  0.21  1.41  27.4  0.27 0.024  0.30   346    22    47   277    70   206     0  0.00     0     0   172     0 4.722 0.199  62.2     0     0   375   386  0.31  0.73  39.6  67.8  2.14  0.00  0.00  0.00  0.36  0.36  0.36   2.0  0.00  0.36  0.00  0.25
   15 110    33    33   8.1 -15.0 12.68  2.68  0.21  1.47  33.0  0.28 0.025  0.31   376    22    52   301    73   229     0  0.00     0     0   193     0 4.722 0.218  64.1     0     0   375   386  0.32  0.73  38.4  53.9  1.94  0.00  0.00  0.00  0.34  0.34  0.34   2.0  0.00  0.19  0.00  0.24
   15 111    34    34  10.7 -15.0 12.77  2.77  0.22  1.53  37.2  0.29 0.026  0.32   409    22    58   329    77   252     0  0.00     0     0   215     0 4.722 0.246  65.4     0     0   375   385  0.33  0.73  38.0  46.5  1.88  0.00  0.00  0.00  0.31  0.31  0.31   2.0  0.00  0.00  0.00  0.24
   15 112    35    35  11.2 -15.0 12.86  2.86  0.23  1.60  39.9  0.31 0.028  0.34   444    22    64   358    81   278     0  0.00     0     0   238     0 4.722 0.278  66.5     0     0   375   384  0.34  0.74  37.9  44.9  2.03  0.00  0.00  0.00  0.27  0.27  0.27   2.0  0.00  0.00  0.00  0.23
   15 113    36    36   6.1 -15.0 12.91  2.91  0.24  1.67  36.9  0.32 0.028  0.34   478    22    70   386    82   304     0  0.00     0     0   264     0 4.722 0.298  68.3     0     0   375   383  0.35  0.74  37.3  57.8  1.83  0.00  0.00  0.00  0.24  0.24  0.24   2.0  0.00  0.39  0.00  0.22
   15 114    37    37   8.8 -15.0 12.99  2.99  0.24  1.64  46.1  0.33 0.029  0.36   519    22    77   420    85   335     0  0.00     0     0   294     0 4.722 0.329  69.9     0     0   375   383  0.36  0.74  37.0  41.5  0.96  0.08  0.04  0.26  0.23  0.23  0.23   1.3  0.00  0.12  0.00  0.22
   15 115    38    38  11.4 -15.0 13.08  3.08  0.25  1.66  45.3  0.34 0.031  0.37   560    21    84   454    90   364     0  0.00     0     0   321     0 4.722 0.373  70.6     0     0   375   382  0.37  0.75  38.5  41.9  0.94  0.11  0.06  0.27  0.21  0.21  0.21   0.8  0.00  0.00  0.00  0.21
   15 116    39    39  15.1 -15.0 13.21  3.21  0.27  1.78  39.6  0.37 0.033  0.40   595    21    90   484    97   387     0  0.00     0     0   340     0 4.722 0.436  70.2     0     0   375   380  0.39  0.75  40.5  50.4  1.48  0.00  0.00  0.00  0.19  0.19  0.19   0.9  0.00  0.00  0.00  0.21
   15 117    40    40  14.5 -15.0 13.33  3.33  0.28  1.83  56.1  0.39 0.036  0.43   646    21    98   526   104   422     0  0.00     0     0   371     0 4.722 0.501  70.6     0     0   375   379  0.40  0.75  46.1  41.5  1.96  0.00  0.00  0.00  0.17  0.17  0.17   1.4  0.00  0.00  0.00  0.20
   15 118    41    41   8.3 -15.0 13.40  3.40  0.29  1.88  41.8  0.41 0.037  0.44   683    21   104   558   107   450     0  0.00     0     0   398     0 4.722 0.542  71.3     0     0   375   378  0.41  0.76  51.9  75.6  4.21  0.00  0.00  0.00  0.15  0.15  0.15   2.0  0.00  0.17  0.00  0.20
   15 119    42    42   7.0 -15.0 13.45  3.45  0.30  1.92  55.9  0.41 0.038  0.45   734    21   112   600   110   490     0  0.00     0     0   437     0 4.722 0.578  72.7     0     0   375   377  0.42  0.76  50.4  56.7  3.45  0.00  0.00  0.00  0.13  0.13  0.13   2.0  0.00  0.30  0.00  0.19
   15 120    43    43  10.4 -15.0 13.54  3.54  0.31  1.94  52.5  0.43 0.040  0.47   781    21   120   640   115   525     0  0.00     0     0   468     0 4.722 0.636  73.2     0     0   375   376  0.43  0.76  50.5  56.9  3.72  0.00  0.00  0.00  0.12  0.12  0.12   2.0  0.00  0.00  0.00  0.19
   15 121    44    44   8.6 -15.0 13.61  3.61  0.32  1.98  24.0  0.45 0.041  0.49   803    21   123   658   119   539     0  0.00     0     0   481     0 4.722 0.688  73.0     0     0   375   375  0.44  0.76  75.3  99.9  9.41  0.00  0.00  0.00  0.11  0.11  0.11   2.0  0.00  0.14  0.00  0.18
   15 122    45    45  10.5 -15.0 13.70  3.70  0.33  2.00  45.6  0.47 0.043  0.51   844    21   129   693   125   569     0  0.00     0     0   507     0 4.722 0.753  73.2     0     0   375   374  0.45  0.77  72.5  96.5  4.82  0.00  0.00  0.00  0.09  0.09  0.09   2.0  0.00  0.00  0.00  0.18
   15 123    46    46  13.2 -15.0 13.81  3.81  0.34  2.03  47.9  0.49 0.046  0.54   887    21   136   730   132   598     0  0.00     0     0   533     0 4.722 0.838  73.0     0     0   375   373  0.46  0.77  79.2  95.9  4.61  0.00  0.00  0.00  0.08  0.08  0.08   2.0  0.00  0.00  0.00  0.17
   15 124    47    47  17.5 -15.0 13.96  3.96  0.36  2.06  52.8  0.53 0.049  0.58   935    21   143   771   141   629     0  0.00     0     0   559     0 4.722 0.957  72.5     0     0   375   372  0.48  0.77  69.6  70.3  4.04  0.00  0.00  0.00  0.07  0.07  0.07   2.0  0.00  0.00  0.00  0.17
   15 125    48    48  19.4 -15.0 14.12  4.12  0.38  2.09  80.3  0.57 0.053  0.62  1008    21   154   833   153   680     0  0.00     0     0   603     0 4.722 1.096  72.5     0     0   375   370  0.50  0.77  70.4  45.4  2.71  0.00  0.00  0.00  0.05  0.05  0.05   2.0  0.00  0.00  0.00  0.16
   15 126    49    49  11.6 -15.0 14.21  4.21  0.39  2.12  59.7  0.58 0.055  0.64  1060    21   162   877   158   719     0  0.00     0     0   641     0 6.745 1.185  73.0     0     0   375   368  0.51  0.78  89.4  95.0  4.81  0.00  0.00  0.00  0.04  0.04  0.04   2.0  0.00  0.00  0.00  0.16
   15 127    50    50  13.0 -15.0 14.32  4.32  0.40  2.14  79.0  0.60 0.057  0.66  1130    21   172   937   163   773     0  0.00     0     0   691     0 9.027 1.290  73.8     0     0   375   367  0.53  0.78  76.8  59.2  3.66  0.00  0.00  0.00  0.03  0.03  0.03   2.0  0.00  0.00  0.00  0.15
   15 128    51    51  15.5 -15.0 14.45  4.45  0.41  2.16  94.9  0.62 0.059  0.68  1214    21   184  1008   170   838     0  0.00     0     0   753     0 11.75 1.423  74.7     0     0   375   366  0.54  0.78  71.1  43.5  3.10  0.00  0.00  0.00  0.02  0.02  0.02   2.0  0.00  0.00  0.00  0.15
   15 129    52    52  14.2 -15.0 14.57  4.57  0.42  2.18  70.1  0.64 0.061  0.70  1275    21   193  1060   175   885     0  0.00     0     0   796     0 14.26 1.554  75.0     0     0   375   364  0.56  0.78  74.7  65.6  4.76  0.00  0.00  0.00  0.01  0.01  0.01   2.0  0.00  0.00  0.00  0.15
   15 130    53    53  13.2 -15.0 14.68  4.68  0.43  2.20  94.9  0.66 0.064  0.72  1359    21   205  1133   181   951     0  0.00     0     0   859     0 16.59 1.682  75.8     0     0   396   363  0.57  0.79  72.6  47.8  3.74  0.00  0.00  0.00  0.00  0.00  0.00   2.0  0.00  0.00  0.00  0.14
   15 131    54    54  13.7 -15.0 14.79  4.79  0.44  2.21 115.8  0.68 0.066  0.74  1463    21   220  1221   187  1034     0  0.00     0     0   937     0 19.01 1.823  76.8     0     0   417   362  0.59  0.79  70.6  37.6  3.22  0.00  0.00  0.00  0.00  0.00  0.00   2.0  0.00  0.00  0.00  0.14
   15 132    55    55  18.0 -15.0 14.94  4.94  0.45  2.21 129.1  0.71 0.070  0.78  1579    21   236  1321   198  1123     0  0.00     0     0  1021     0 21.00 2.020  77.3     0     0   445   360  0.61  0.79  69.8  30.4  2.82  0.00  0.00  0.00  0.00  0.00  0.00   2.0  0.00  0.00  0.00  0.13
   15 133    56    56  17.8 -15.0 15.09  5.09  0.48  2.21  90.7  0.77 0.077  0.85  1662    21   247  1393   216  1177     0  0.00     0     0  1064     0 21.00 2.230  76.3     0     0   473   358  0.62  0.79  75.8  48.4  4.43  0.00  0.00  0.00  0.00  0.00  0.00   1.5  0.00  0.00  0.00  0.13
   15 134    57    57  15.0 -15.0 15.22  5.22  0.50  2.21  88.4  0.82 0.082  0.90  1739    21   258  1460   231  1229     0  0.00     0     0  1107     0 24.35 2.415  75.8     0     0   496   356  0.64  0.79  75.7  52.3  5.03  0.00  0.00  0.00  0.00  0.00  0.00   2.0  0.00  0.00  0.00  0.13
   15 135    58    58  11.4 -15.0 15.31  5.31  0.52  2.21  94.4  0.86 0.087  0.95  1823    21   270  1532   243  1289     0  0.00     0     0  1160     0 26.91 2.563  75.7     0     0   514   354  0.65  0.79  75.0  52.8  5.34  0.00  0.00  0.00  0.00  0.00  0.00   2.0  0.00  0.00  0.00  0.12
   15 136    59    59  12.8 -15.0 15.42  5.42  0.54  2.21 134.0  0.90 0.092  1.00  1943    21   286  1636   256  1379     0  0.00     0     0  1241     0 29.78 2.735  75.9     0     0   534   353  0.66  0.80  73.4  34.8  3.76  0.00  0.00  0.00  0.00  0.00  0.00   1.8  0.00  0.00  0.00  0.12
   15 137    60    60  14.1 -15.0 15.54  5.54  0.56  2.21 100.1  0.96 0.098  1.05  2032    21   298  1712   272  1440     0  0.00     0     0  1292     0 32.97 2.937  75.4     0     0   556   351  0.67  0.80  73.7  46.2  5.27  0.00  0.00  0.00  0.00  0.00  0.00   1.4  0.00  0.00  0.00  0.12
   15 138    61    61  15.4 -15.0 15.66  5.66  0.58  2.21 155.3  1.01 0.105  1.12  2171    21   317  1833   290  1543     0  0.00     0     0  1383     0 36.44 3.167  75.4     0     0   580   349  0.69  0.80  72.1  27.8  3.38  0.00  0.00  0.00  0.00  0.00  0.00   1.1  0.00  0.00  0.00  0.11
   15 139    62    62  13.9 -15.0 15.78  5.78  0.60  2.21 114.1  1.07 0.112  1.18  2272    21   330  1921   307  1614     0  0.00     0     0  1442     0 39.61 3.388  75.1     0     0   602   348  0.70  0.80  87.3  48.3  3.94  0.00  0.00  0.00  0.00  0.00  0.00   1.2  0.00  0.00  0.00  0.11
   15 140    63    63   8.4 -15.0 15.85  5.85  0.61  2.21  75.8  1.10 0.116  1.22  2342    21   339  1981   318  1663     0  0.00     0     0  1486     0 40.20 3.526  75.0     0     0   602   347  0.71  0.80 105.6  99.9  9.25  0.00  0.00  0.00  0.00  0.00  0.00   2.0  0.00  0.16  0.00  0.00
   15 141    64    64   9.8 -15.0 15.93  5.93  0.62  2.21 100.1  1.15 0.121  1.27  2433    21   351  2061   332  1729     0  0.00     0     0  1542     0 40.90 3.691  74.8     0     0   602   346  0.72  0.80 105.1  72.7  6.89  0.00  0.00  0.00  0.00  0.00  0.00   2.0  0.00  0.02  0.00  0.00
   15 142    65    65   9.9 -15.0 16.01  6.01  0.64  2.21 146.0  1.20 0.127  1.33  2567    21   367  2178   349  1829     0  0.00     0     0  1631     0 41.61 3.863  74.9     0     0   602   345  0.73  0.81  96.6  45.2  4.82  0.00  0.00  0.00  0.00  0.00  0.00   1.7  0.00  0.01  0.00  0.00
   15 143    66    66  11.7 -15.0 16.11  6.11  0.67  2.21 141.3  1.29 0.139  1.43  2696    21   384  2291   377  1914     0  0.00     0     0  1697     0 42.45 4.078  74.1     0     0   602   343  0.74  0.81  97.8  45.5  5.02  0.00  0.00  0.00  0.00  0.00  0.00   1.1  0.00  0.00  0.00  0.00
   15 144    67    67  12.1 -15.0 16.21  6.21  0.69  2.21 125.9  1.39 0.150  1.54  2811    21   398  2392   407  1985     0  0.00     0     0  1749     0 43.32 4.311  73.1     0     0   602   341  0.75  0.81  97.4  50.6  5.85  0.00  0.00  0.00  0.00  0.00  0.00   1.0  0.00  0.00  0.00  0.00
   15 145    68    68  14.6 -15.0 30.15  6.33  0.72  2.21 149.9  1.50 0.164  1.67  2948    21   415  2512   443  2070     0  0.00     0     0  1810     0 44.37 4.601  72.0     0     0   602   339  0.76  0.81  96.6  39.6  4.80  0.00  0.00  0.00  0.00  0.00  0.00   0.7  0.00  0.00  0.00  0.00
   15 146    69    69  11.6 -15.0 30.67  6.43  0.74  2.18 134.4  1.59 0.175  1.77  3071    21   430  2621   471  2150     0  0.00     0     0  1870     0 45.21 4.841  71.3     0     0   602   338  0.77  0.81  95.2  46.3  5.93  0.00  0.00  0.00  0.01  0.01  0.01   0.6  0.00  0.00  0.00  0.00
   15 147    70    70   9.2 -15.0 31.08  6.51  0.76  2.15 158.7  1.66 0.184  1.84  3217    21   447  2749   492  2257     0  0.00     0     0  1960     0 45.89 5.040  71.3     0     0   602   336  0.78  0.81  92.9  39.8  5.41  0.00  0.00  0.00  0.03  0.03  0.03   0.7  0.00  0.07  0.00  0.00
   15 148    71    71  11.9 -14.4 31.61  6.61  0.77  2.15 215.5  1.75 0.197  1.94  3416    21   471  2923   520  2403     0  0.00     0     0  2082     0 46.75 5.306  71.2     0     0   602   335  0.79  0.81  90.0  26.1  3.81  0.00  0.00  0.00  0.03  0.03  0.03   0.5  0.00  0.00  0.00  0.00
   15 149    72    72  15.6 -13.2 32.30  6.74  0.79  2.11 209.2  1.86 0.213  2.07  3608    21   494  3093   557  2535     0  0.00     0     0  2182     0 47.89 5.673  70.6     0     0   602   334  0.81  0.81  87.4  23.7  3.43  0.00  0.00  0.00  0.05  0.05  0.05   0.4  0.00  0.00  0.00  0.00
   15 150    73    73  14.9 -12.4 32.97  6.86  0.81  2.03 137.8  1.97 0.227  2.19  3734    21   509  3204   592  2612     0  0.00     0     0  2235     0 48.99 6.043  69.8     0     0   602   333  0.82  0.81  86.2  35.3  4.62  0.00  0.00  0.00  0.08  0.08  0.08   0.4  0.00  0.00  0.00  0.00
   15 151    74    74  15.4 -11.4 33.65  6.99  0.83  1.97 178.8  2.07 0.242  2.32  3898    21   529  3348   626  2721     0  0.00     0     0  2315     0 50.11 6.435  69.1     0     0   602   331  0.83  0.81  84.1  25.3  3.47  0.00  0.00  0.00  0.11  0.11  0.11   0.3  0.00  0.00  0.00  0.00
   15 152    75    75  19.0 -10.0 34.50  7.15  0.85  1.91 195.2  2.27 0.267  2.54  4077    21   550  3505   689  2816     0  0.00     0     0  2367     0 51.51 6.937  67.5     0     0   602   330  0.85  0.81  82.0  20.1  2.94  0.00  0.00  0.00  0.14  0.14  0.14   0.2  0.00  0.00  0.00  0.00
   15 153    76    76  19.8  -8.6 35.37  7.31  0.88  1.76 171.1  2.46 0.291  2.75  4233    21   569  3642   752  2890     0  0.00     0     0  2401     0 52.96 7.480  65.9     0     0   602   327  0.87  0.81  80.1  20.4  3.13  0.00  0.00  0.00  0.20  0.20  0.20   0.1  0.00  0.00  0.00  0.00
   15 154    77    77  20.5  -6.9 36.28  7.48  0.89  1.65 189.1  2.64 0.315  2.96  4405    21   591  3793   812  2981     0  0.00     0     0  2450     0 54.47 8.062  64.6     0     0   602   325  0.89  0.81  77.6  16.3  2.33  0.00  0.00  0.00  0.25  0.25  0.25   0.1  0.00  0.03  0.00  0.00
   15 155    78    78  19.7  -6.0 37.16  7.65  0.91  1.55 172.2  2.81 0.337  3.15  4562    21   610  3931   869  3062     0  0.00     0     0  2492     0 55.93 8.642  63.4     0     0   602   323  0.91  0.81  75.3  16.6  2.23  0.00  0.00  0.00  0.30  0.30  0.30   0.1  0.00  0.00  0.00  0.00
   15 156    79    79  21.8  -6.0 38.12  7.83  0.92  1.48 158.3  2.97 0.358  3.32  4706    21   628  4057   922  3135     0  0.00     0     0  2529     0 57.55 9.306  62.3     0     0   602   322  0.93  0.81  73.2  16.1  1.99  0.00  0.00  0.00  0.33  0.33  0.33   0.1  0.00  0.12  0.00  0.00
   15 157    80    80  21.8  -6.0 39.09  8.01  0.93  1.43 180.2  3.12 0.381  3.50  4870    21   648  4201   975  3226     0  0.00     0     0  2579     0 59.17 9.988  61.4     0     0   602   320  0.95  0.81  72.4  13.4  1.36  0.00  0.00  0.00  0.35  0.35  0.35   0.1  0.00  0.12  0.00  0.00
   15 158    81    81  21.5  -6.0 40.04  8.19  0.94  1.38 140.4  3.35 0.410  3.76  4997    21   663  4313  1054  3258     0  0.00     0     0  2567     0 60.77 10.68  59.5     0     0   602   318  0.97  0.81  70.0  16.2  2.11  0.00  0.00  0.00  0.38  0.38  0.38   0.4  0.00  0.10  0.00  0.00
   15 159    82    82  16.1  -6.0 40.71  8.19  0.94  1.38 121.9  3.33 0.417  3.74  5109    21   676  4412  1051  3356     0  0.00     0     0  2631     5 60.77 11.22  59.7     0     0   602   317  0.98  0.81  84.8  25.4  1.83  0.00  0.00  0.00  0.37  0.37  0.37   0.5  0.00  0.00  0.00  0.00
   15 160    83    83  12.3  -6.0 41.23  8.19  0.94  1.43  66.6  3.31 0.421  3.73  5171    21   683  4466  1048  3410     0  0.00     0     0  2667     8 60.77 11.63  59.8     0     0   602   316  0.99  0.82  85.3  53.3  9.23  0.00  0.00  0.00  0.35  0.35  0.35   2.0  0.00  0.00  0.00  0.00
   15 161    84    84  14.7  -6.0 41.84  8.19  0.94  1.49 123.2  3.29 0.429  3.72  5285    21   696  4568  1043  3512     0  0.00     0     0  2732    13 60.77 12.14  60.0     0     0   602   315  1.01  0.82  83.7  27.6  4.90  0.00  0.00  0.00  0.33  0.33  0.33   2.0  0.00  0.00  0.00  0.00
   15 162    85    85  18.3  -6.0 42.60  8.19  0.94  1.55 139.2  3.26 0.438  3.70  5414    21   709  4683  1037  3628     0  0.00     0     0  2807    18 60.77 12.77  60.2     0     0   602   315  1.02  0.83  81.6  22.9  4.18  0.00  0.00  0.00  0.30  0.30  0.30   2.0  0.00  0.00  0.00  0.00
   15 163    86    86  20.9  -6.0 43.47  8.19  0.94  1.62 202.9  3.23 0.453  3.69  5603    21   728  4853  1031  3798     0  0.00     0     0  2915    24 60.77 13.51  60.4     0     0   602   314  1.04  0.84  77.8  14.6  2.76  0.00  0.00  0.00  0.27  0.27  0.27   2.0  0.00  0.06  0.00  0.00
   15 164    87    87  20.1  -6.0 44.31  8.19  0.93  1.69 173.5  3.21 0.464  3.67  5765    21   744  4999  1025  3944     0  0.00     0     0  3009    30 60.77 14.25  60.5     0     0   602   313  1.06  0.84  83.9  19.8  2.12  0.00  0.00  0.00  0.23  0.23  0.23   2.0  0.00  0.01  0.00  0.00
   15 165    88    88  20.1  -6.0 45.15  8.19  0.93  1.76 170.5  3.18 0.476  3.65  5924    21   758  5144  1019  4090     0  0.00     0     0  3102    36 60.77 14.99  60.7     0     0   602   312  1.07  0.85 101.7  25.5  3.65  0.00  0.00  0.00  0.20  0.20  0.20   2.0  0.00  0.01  0.00  0.00
   15 166    89    89  15.1  -6.0 45.78  8.19  0.93  1.83  99.1  3.16 0.483  3.64  6017    21   766  5230  1015  4174     0  0.00     0     0  3157    40 60.77 15.57  60.8     0     0   602   311  1.08  0.86 121.1  61.1  9.42  0.00  0.00  0.00  0.17  0.17  0.17   2.0  0.00  0.00  0.00  0.00
   15 167    90    90  15.2  -6.0 46.41  8.19  0.93  1.89 161.8  3.14 0.495  3.63  6170    21   779  5369  1011  4314     0  0.00     0     0  3246    45 60.77 16.15  61.0     0     0   602   310  1.10  0.86 119.2  37.4  6.61  0.00  0.00  0.00  0.15  0.15  0.15   2.0  0.00  0.00  0.00  0.00
   15 168    91    91  14.8  -6.0 47.03  8.19  0.93  1.94 185.3  3.12 0.509  3.62  6345    21   793  5531  1006  4475     0  0.00     0     0  3347    49 60.77 16.73  61.1     0     0   602   310  1.11  0.87 116.8  33.2  6.06  0.00  0.00  0.00  0.12  0.12  0.12   2.0  0.00  0.00  0.00  0.00
   15 169    92    92  13.2  -6.0 47.58  8.19  0.93  2.00 174.4  3.10 0.522  3.62  6510    21   805  5683  1002  4628     0  0.00     0     0  3442    53 60.77 17.25  61.1     0     0   602   309  1.12  0.88 126.6  40.9  7.00  0.00  0.00  0.00  0.10  0.10  0.10   2.0  0.00  0.00  0.00  0.00
   15 170    93    93  13.2  -6.0 48.13  8.19  0.93  2.04 136.6  3.08 0.532  3.61  6639    21   815  5804   998  4748     0  0.00     0     0  3518    57 60.77 17.78  61.2     0     0   602   308  1.13  0.88 125.4  53.3  9.34  0.00  0.00  0.00  0.07  0.07  0.07   2.0  0.00  0.00  0.00  0.00
   15 171    94    94  12.2  -6.0 48.64  8.19  0.93  2.09 155.0  3.06 0.545  3.61  6787    21   825  5941   995  4850     0  0.00    36    36  3604    61 60.77 18.28  61.3     0     0   602   308  1.14  0.89 124.5  48.7  9.37  0.00  0.00  0.00  0.05  0.05  0.05   2.0  0.00  0.00  0.00  0.00
   15 172    95    95  13.6  -6.0 49.20  8.19  0.92  2.13 188.6  3.04 0.560  3.60  6966    21   837  6109   990  4856     0  0.00   198    79  3709    65 60.77 18.84  61.4     0     0   602   307  1.15  0.89 122.9  38.9  7.58  0.00  0.00  0.00  0.03  0.03  0.03   2.0  0.00  0.00  0.00  0.00
   15 173    96    96  16.2  -6.0 49.88  8.19  0.92  2.18 197.5  3.02 0.575  3.59  7155    21   848  6285   985  4851     0  0.00   380   125  3819    69 60.77 19.52  61.4     0     0   602   307  1.17  0.89 130.7  38.1  6.97  0.00  0.00  0.00  0.01  0.01  0.01   2.0  0.00  0.00  0.00  0.00
   15 174    97    97  13.1  -6.0 51.70  8.19  0.92  2.21 179.4  3.00 0.589  3.59  7327    21   859  6447   981  4834     0  0.00   558   167  3920    73 60.77 20.08  61.5     0     0   602   306  1.18  0.90 131.7  45.9  8.38  0.00  0.00  0.00  0.00  0.00  0.00   2.0  0.00  0.00  0.00  0.00
   15 175    98    98  13.9  -6.0 54.02  8.19  0.92  2.21 234.2  2.98 0.607  3.59  7552    21   871  6659   977  4878     0  0.00   727   222  4051    77 60.77 20.67  61.5     0     0   602   305  1.19  0.91 128.8  33.4  6.35  0.00  0.00  0.00  0.00  0.00  0.00   2.0  0.00  0.00  0.00  0.00
   15 176    99    99  13.8  -6.0 56.33  8.19  0.92  2.21 262.3  2.97 0.627  3.59  7805    21   883  6900   973  4913     0  0.00   933   285  4200    80 60.77 21.28  61.6     0     0   602   305  1.20  0.92 125.2  28.9  5.91  0.00  0.00  0.00  0.00  0.00  0.00   2.0  0.00  0.00  0.00  0.00
   15 177   100   100  16.5  -6.0 59.08  8.19  0.92  2.21 271.1  2.95 0.647  3.59  8067    21   894  7152   969  4945     0  0.00  1154   351  4355    85 60.77 22.00  61.6     0     0   602   304  1.21  0.93 121.4  25.5  5.46  0.00  0.00  0.00  0.00  0.00  0.00   2.0  0.00  0.00  0.00  0.00
   15 178   101   101  18.4  -6.0 65.34  8.19  0.92  2.21 203.8  2.92 0.661  3.58  8266    21   901  7344   963  4925     0  0.00  1366   400  4475    90 60.77 22.82  61.7     0     0   602   303  1.23  0.94 120.0  32.8  7.17  0.00  0.00  0.00  0.00  0.00  0.00   2.0  0.00  0.00  0.00  0.00
   15 179   102   102  17.9  -6.0 70.43  8.19  0.92  2.21 210.5  2.90 0.676  3.58  8471    21   906  7545   958  4960     0  0.00  1531   453  4600    94 60.77 23.63  61.7     0     0   602   303  1.24  0.95 117.5  31.4  6.37  0.00  0.00  0.00  0.00  0.00  0.00   2.0  0.00  0.00  0.00  0.00
   15 180   103   103  18.9  -6.0 71.64  8.19  0.91  2.21 239.5  2.88 0.695  3.57  8707    21   909  7776   953  5015     7  0.00  1702   520  4738    99 60.77 24.48  61.8 16390 .0000   602   302  1.26  0.97 114.4  26.2  4.44  0.00  0.00  0.00  0.00  0.00  0.00   2.0  0.00  0.00  0.00  0.00
   15 181   104   104  20.6  -6.0 72.96  8.19  0.91  2.21 275.3  2.85 0.689  3.54  8979    21   912  8046   947  5026    34  0.00  1934   547  4985   105 60.77 25.42  63.0 16390 .0002   602   301  1.27  0.98 110.7  21.1  3.59  0.00  0.00  0.00  0.00  0.00  0.00   2.0  0.00  0.04  0.00  0.00
   15 182   105   105  21.0  -6.0 74.31  8.19  0.91  2.21 259.7  2.82 0.684  3.51  9236    21   914  8301   941  5168    85  0.01  1995   598  5194   110 60.77 26.38  64.1 16390 .0005   602   300  1.29  0.98 107.5  21.7  3.73  0.00  0.00  0.00  0.00  0.00  0.00   2.0  0.00  0.07  0.00  0.00
   15 183   106   106  22.2  -6.0 75.73  8.19  0.91  2.21 257.1  2.80 0.678  3.48  9490    21   916  8553   935  5290   164  0.02  2048   677  5373   116 60.77 27.39  65.0 16390 .0010   602   299  1.31  0.98 104.6  20.8  2.81  0.00  0.00  0.00  0.00  0.00  0.00   2.0  0.00  0.15  0.00  0.00
   15 184   107   107  23.0  -6.0 77.21  8.19  0.90  2.21 280.5  2.77 0.672  3.44  9767    21   918  8827   928  5406   272  0.03  2099   785  5546   122 60.77 28.45  65.8 16390 .0017   602   298  1.33  0.98 101.3  18.1  2.31  0.00  0.00  0.00  0.00  0.00  0.00   1.7  0.00  0.20  0.00  0.00
   15 185   108   108  24.6  -6.0 78.78  8.19  0.90  2.21 270.8  2.74 0.666  3.40 10034    21   920  9093   921  5490   418  0.05  2136   931  5672   129 60.77 29.58  66.4 16390 .0025   602   297  1.35  0.98  98.1  17.7  1.44  0.00  0.00  0.00  0.00  0.00  0.00   0.8  0.00  0.30  0.00  0.00
   15 186   109   109  25.5  -6.0 80.09  8.19  0.90  2.10 249.0  2.71 0.660  3.37 10280    21   922  9337   913  5532   602  0.06  2155  1115  5739   135 60.77 30.75  66.7 16390 .0037   602   296  1.37  0.98  95.1  17.5  1.22  0.00  0.00  0.06  0.00  0.00  0.00   0.4  0.05  0.37  0.00  0.00
   15 187   110   110  23.2  -6.0 80.42  8.19  0.90  1.87 185.6  2.70 0.655  3.35 10463    21   923  9519   913  5522   795  0.08  2151  1308  5729   137 60.77 31.82  66.7 16390 .0049   602   295  1.39  0.98  93.7  21.7  0.86  0.28  0.14  0.34  0.02  0.02  0.02   0.2  0.00  0.21  0.00  0.00
   15 188   111   111  25.1  -6.0 80.78  8.19  0.89  1.03 127.2  2.63 0.649  3.28 10588    21   924  9643   894  5463  1005  0.10  2130  1518  5657   151 60.77 32.98  66.7 16390 .0061   602   294  1.41  0.98  96.5  17.1  0.51  0.97  0.49  0.61  0.08  0.08  0.08   0.1  0.01  0.34  0.00  0.00
   15 189   112   112  17.4  -6.0 81.03  8.19  0.89  1.79 140.8  2.63 0.646  3.27 10727    21   925  9781   895  5457  1150  0.12  2127  1663  5652   152 60.77 33.78  66.7 16390 .0070   602   293  1.42  0.98 101.4  33.5  3.15  0.00  0.00  0.00  0.19  0.19  0.19   1.4  0.00  0.00  0.00  0.00
   15 190   113   113  13.9  -6.0 81.23  8.19  0.89  1.84 173.2  2.62 0.643  3.26 10898    21   926  9951   896  5504  1251  0.13  2147  1764  5722   153 60.77 34.42  66.9 16390 .0076   602   293  1.44  0.98  99.1  29.3  2.94  0.00  0.00  0.00  0.17  0.17  0.17   2.0  0.00  0.00  0.00  0.00
   15 191   114   114  14.9  -6.0 81.44  8.19  0.89  1.88 213.1  2.62 0.639  3.25 11109    21   928 10160   895  5569  1366  0.13  2175  1879  5817   154 60.77 35.11  67.3 16390 .0083   602   292  1.45  0.98  96.3  22.9  2.33  0.00  0.00  0.00  0.15  0.15  0.15   1.1  0.00  0.00  0.00  0.00
   15 192   115   115  18.3  -6.0 81.70  8.19  0.89  0.91 119.0  2.56 0.636  3.19 11226    21   928 10276   877  5545  1519  0.15  2169  2032  5793   167 60.77 35.96  67.4 16390 .0093   602   292  1.46  0.98  95.6  18.3  0.48  1.00  0.52  0.63  0.13  0.13  0.13   0.2  0.00  0.00  0.00  0.00
   15 193   116   116  20.5  -6.0 82.00  8.19  0.88  0.85  92.7  2.50 0.631  3.13 11317    21   929 10367   859  5490  1690  0.16  2149  2203  5725   179 60.77 36.91  67.4 16390 .0103   602   291  1.48  0.98  95.3  21.0  0.48  1.00  0.52  0.63  0.21  0.21  0.21   0.1  0.00  0.03  0.00  0.00
   15 194   117   117  18.4  -6.0 82.26  8.19  0.88  1.23  80.3  2.49 0.628  3.12 11396    21   929 10446   859  5437  1844  0.18  2126  2357  5652   181 60.77 37.77  67.1 16390 .0112   602   290  1.49  0.98  95.2  37.5  0.79  0.42  0.21  0.39  0.29  0.29  0.29   0.1  0.00  0.00  0.00  0.00
   15 195   118   118  20.6  -6.0 82.55  8.19  0.87  0.70  64.7  2.43 0.624  3.06 11459    21   929 10509   841  5362  2016  0.19  2098  2529  5555   193 60.77 38.72  66.9 16390 .0123   602   289  1.51  0.98  95.2  25.1  0.51  0.97  0.49  0.60  0.38  0.38  0.38   0.1  0.00  0.04  0.00  0.00
   15 196   119   119  21.7  -6.0 82.86  8.19  0.87  0.49  47.1  2.38 0.619  2.99 11505    21   928 10556   823  5268  2197  0.21  2062  2710  5432   205 60.77 39.73  66.6 16390 .0134   602   288  1.53  0.98  95.5  23.8  0.44  1.00  0.56  0.66  0.49  0.49  0.49   0.1  0.00  0.11  0.00  0.00
   15 197   120   120  22.4  -6.0 83.18  8.19  0.86  0.31  35.9  2.32 0.615  2.93 11540    21   928 10591   806  5163  2384  0.23  2021  2896  5292   217 60.77 40.77  66.2 16390 .0145   602   288  1.55  0.98  96.0  19.1  0.34  1.00  0.66  0.74  0.59  0.59  0.59   0.1  0.00  0.16  0.00  0.00
   15 198   121   121  24.6  -6.0 83.53  8.19  0.85  0.21  24.9  2.22 0.611  2.83 11563    21   927 10615   773  5039  2589  0.24  1976  3102  5133   238 60.77 41.91  65.9 16390 .0158   602   287  1.57  0.98  96.9  18.1  0.28  1.00  0.72  0.78  0.66  0.66  0.66   0.0  0.00  0.31  0.00  0.00
   15 199   122   122  22.0  -6.0 83.85  8.19  0.83  0.17  17.8  2.12 0.607  2.73 11580    21   926 10633   742  4926  2772  0.26  1934  3285  4988   259 60.77 42.93  65.6 16390 .0169   602   286  1.59  0.98  97.8  22.5  0.28  1.00  0.72  0.78  0.72  0.72  0.72   0.0  0.00  0.13  0.00  0.00
   15 200   123   123  22.4  -6.0 84.17  8.19  0.82  0.13  12.6  2.03 0.603  2.63 11591    21   925 10645   711  4807  2959  0.28  1890  3472  4833   278 60.77 43.96  65.2 16390 .0181   602   285  1.60  0.98  98.9  24.4  0.27  1.00  0.73  0.80  0.77  0.77  0.77   0.0  0.00  0.16  0.00  0.00
   15 201   124   124  23.3  -6.0 84.50  8.19  0.81  0.11   9.1  1.94 0.599  2.53 11599    21   924 10654   681  4679  3154  0.30  1842  3667  4666   297 60.77 45.04  64.8 16390 .0192   602   284  1.62  0.98 100.2  27.7  0.26  1.00  0.74  0.80  0.81  0.81  0.81   0.0  0.00  0.22  0.00  0.00
   15 202   125   125  24.2  -6.0 84.85  8.19  0.79  0.07   6.7  1.85 0.595  2.44 11605    21   923 10661   653  4545  3356  0.31  1791  3869  4488   316 60.77 46.16  64.2 16390 .0205   602   283  1.64  0.98 101.7  23.0  0.20  1.00  0.80  0.85  0.85  0.85  0.85   0.0  0.00  0.28  0.00  0.00
   15 203   126   126  25.0  -6.0 85.20  8.19  0.78  0.05   4.9  1.77 0.591  2.36 11609    21   922 10665   625  4405  3565  0.33  1737  4077  4302   333 60.77 47.31  63.6 16390 .0217   602   282  1.66  0.98 103.3  21.3  0.17  1.00  0.83  0.87  0.87  0.87  0.87   0.0  0.00  0.33  0.00  0.00
   15 204   127   127  21.4  -6.0 85.51  8.19  0.76  0.07   4.1  1.69 0.587  2.27 11612    21   921 10669   599  4285  3743  0.35  1692  4256  4144   350 60.77 48.30  63.0 16390 .0228   602   281  1.68  0.98 104.6  42.3  0.30  1.00  0.70  0.77  0.90  0.90  0.90   0.0  0.00  0.09  0.00  0.00
   15 205   128   128  22.0  -6.0 85.82  8.19  0.75  0.03   3.1  1.61 0.584  2.19 11614    21   920 10672   574  4161  3926  0.37  1645  4439  3980   366 60.77 49.31  62.4 16390 .0240   602   281  1.70  0.98 106.1  28.0  0.18  1.00  0.82  0.86  0.92  0.92  0.92   0.0  0.00  0.13  0.00  0.00
   15 206   129   129  18.8  -6.0 86.09  8.19  0.73  0.03   2.6  1.54 0.581  2.12 11615    21   919 10675   550  4056  4083  0.38  1605  4596  3841   381 60.77 50.17  61.8 16390 .0249   602   280  1.72  0.98 107.3  33.4  0.20  1.00  0.80  0.84  0.93  0.93  0.93   0.0  0.00  0.00  0.00  0.00
   15 207   130   130  15.6  -6.0 86.31  8.19  0.71  0.02   2.0  1.47 0.579  2.05 11617    21   918 10677   527  3971  4210  0.39  1574  4723  3731   395 60.77 50.89  61.4 16390 .0257   602   279  1.73  0.98 108.3  33.5  0.18  1.00  0.82  0.86  0.94  0.94  0.94   0.0  0.00  0.00  0.00  0.00
   15 208   131   131  18.3  -6.0 86.58  8.19  0.70  0.02   1.5  1.41 0.576  1.98 11617    21   918 10678   505  3867  4363  0.41  1535  4876  3593   409 60.77 51.73  60.8 16390 .0266   602   279  1.74  0.98 112.4  39.9  0.20  1.00  0.80  0.85  0.95  0.95  0.95   0.0  0.00  0.00  0.00  0.00
   15 209   132   132  17.5  -6.0 86.82  8.19  0.69  0.08   5.9  1.37 0.573  1.94 11622    21   917 10684   493  3770  4509  0.42  1496  5021  3460   416 60.77 52.53  60.1 16390 .0275   602   278  1.76  0.98 112.1  42.0  2.83  0.00  0.00  0.00  0.96  0.96  0.96   0.6  0.00  0.00  0.00  0.00
   15 210   133   133  15.0  -6.0 87.04  8.19  0.67  0.02   1.7  1.31 0.571  1.88 11623    21   916 10686   473  3691  4626  0.43  1467  5139  3357   429 60.77 53.22  59.6 16390 .0282   602   277  1.77  0.98 113.2  45.0  0.35  1.00  0.65  0.73  0.97  0.97  0.97   0.1  0.00  0.00  0.00  0.00
   15 211   134   134  14.6  -6.0 87.25  8.19  0.64  0.02   1.5  1.21 0.569  1.78 11624    21   916 10687   438  3619  4738  0.44  1443  5251  3268   450 60.77 53.89  59.4 16390 .0289   602   277  1.78  0.98 113.2  40.6  0.35  1.00  0.65  0.73  0.97  0.97  0.97   0.1  0.00  0.00  0.00  0.00
   15 212   135   135  16.4  -6.0 87.48  8.19  0.61  0.01   0.7  1.12 0.567  1.68 11624    21   915 10688   404  3528  4875  0.46  1412  5388  3151   470 60.77 54.64  59.0 16390 .0297   602   276  1.80  0.98 114.2  41.6  0.20  1.00  0.80  0.84  0.98  0.98  0.98   0.0  0.00  0.00  0.00  0.00
   15 213   136   136  17.0  -6.0 87.72  8.19  0.58  0.01   0.5  1.02 0.565  1.59 11624    21   914 10688   370  3433  5016  0.47  1379  5529  3030   490 60.77 55.42  58.5 16390 .0306   602   276  1.81  0.98 115.4  61.5  0.24  1.00  0.76  0.81  0.98  0.98  0.98   0.0  0.00  0.00  0.00  0.00
   15 214   137   137  19.0  -6.0 88.00  8.19  0.55  0.01   0.3  0.93 0.562  1.49 11623    21   913 10689   337  3327  5175  0.48  1340  5688  2892   510 60.77 56.28  57.8 16390 .0316   602   275  1.82  0.98 116.8  49.1  0.18  1.00  0.82  0.86  0.99  0.99  0.99   0.0  0.00  0.00  0.00  0.00
   15 215   138   138  19.8  -6.0 88.28  8.19  0.51  0.00   0.3  0.83 0.559  1.39 11623    21   912 10689   303  3216  5340  0.50  1301  5853  2747   530 60.77 57.19  57.0 16390 .0326   602   274  1.84  0.98 118.4  44.0  0.16  1.00  0.84  0.88  0.99  0.99  0.99   0.0  0.00  0.00  0.00  0.00
   15 216   139   139  21.9  -6.0 88.59  8.19  0.47  0.00   0.2  0.74 0.554  1.29 11622    21   911 10689   269  3078  5522  0.52  1260  6035  2585   560 60.77 58.18  56.1 16390 .0337   602   274  1.86  0.98 120.1  43.2  0.15  1.00  0.85  0.89  0.99  0.99  0.99   0.0  0.00  0.12  0.00  0.00
   15 217   140   140  21.8  -6.0 88.90  8.19  0.42  0.00   0.2  0.64 0.549  1.19 11621    21   910 10689   234  2942  5704  0.53  1219  6217  2424   590 60.77 59.17  55.2 16390 .0348   602   273  1.88  0.98 121.9  53.1  0.17  1.00  0.83  0.87  0.99  0.99  0.99   0.0  0.00  0.12  0.00  0.00
   15 218   141   141  23.4  -6.0 89.24  8.19  0.37  0.00   0.1  0.55 0.543  1.09 11620    21   909 10690   200  2796  5899  0.55  1173  6412  2249   620 60.77 60.24  53.9 16390 .0360   602   272  1.90  0.98 123.8  51.8  0.16  1.00  0.84  0.88  0.99  0.99  0.99   0.0  0.00  0.23  0.00  0.00
   15 219   142   142  24.8  -6.0 89.59  8.19  0.32  0.00   0.1  0.45 0.538  0.99 11619    21   908 10690   166  2642  6106  0.57  1124  6619  2062   651 60.77 61.36  52.4 16390 .0373   602   271  1.92  0.98 125.9  57.4  0.17  1.00  0.83  0.87  1.00  1.00  1.00   0.0  0.00  0.32  0.00  0.00
   15 220   143   143  25.2  -6.0 89.95  8.19  0.26  0.00   0.0  0.36 0.532  0.89 11618    21   907 10690   131  2486  6316  0.59  1074  6829  1872   683 60.77 62.51  50.7 16390 .0385   602   270  1.94  0.98 128.1  71.0  0.20  1.00  0.80  0.85  1.00  1.00  1.00   0.0  0.02  0.34  0.00  0.00
   15 221   144   144  24.7  -6.0 91.05  8.19  0.20  0.00   0.0  0.26 0.526  0.79 11617    21   906 10690    97  2424  6392  0.60  1063  6905  1815   713 60.77 63.63  50.6 16390 .0390   602   270  1.96  0.98 130.2  95.0  0.26  1.00  0.74  0.80  1.00  1.00  1.00   0.0  0.00  0.31  0.00  0.00

*DSSAT Cropping System Model Ver. 4.8.5.000 -release  OCT 24, 2025 14:14:59

*RUN   2        : 2                         CSCER048 TUDU1501    2
 MODEL          : CSCER048 - Wheat
 EXPERIMENT     : TUDU1501 WH
 DATA PATH      :
 TREATMENT  2   : 2                         CSCER048
  
@YEAR DOY   DAS   DAP TMEAN TKILL  GSTD  L#SD PARID PARUD  AWAD  LAID  SAID  CAID  TWAD SDWAD  RWAD  CWAD  LWAD  SWAD  HWAD  HIAD CHWAD  EWAD RSWAD SNWPD SNWLD SNWSD  RS%D  H#AD  HWUD  T#AD  SLAD  RDPD  PTFD  SWXD WAVRD WUPRD  WFTD  WFPD  WFGD  NFTD  NFPD  NFGD NUPRD  TFPD  TFGD VRNFD DYLFD
   15  77     0     0   7.7  -6.0  0.00  0.00  0.00  0.00   0.0  0.00 0.000  0.00   107   107     0     0     0     0     0  0.00     0     0     0     0     0     0   0.0     0     0   375   -99  0.03  0.98   3.0  99.9  1.00  0.00  0.00  0.00  0.00  0.00  0.00   0.0  0.00  0.24  1.00  0.00
   15  78     1     1   6.3  -6.0  2.65  0.00  0.00  0.00   0.0  0.00 0.000  0.00   107   107     0     0     0     0     0  0.00     0     0     0     0     0     0   0.0     0     0   375   -99  0.03  0.98   2.5  99.9  1.00  0.00  0.00  0.00  0.00  0.00  0.00   0.0  0.00  0.37  1.00  0.00
   15  79     2     2   5.4  -6.0  4.83  0.00  0.00  0.00   0.0  0.00 0.000  0.00   107   107     0     0     0     0     0  0.00     0     0     0     0     0     0   0.0     0     0   375   -99  0.03  0.98   2.1  99.9  1.00  0.00  0.00  0.00  0.00  0.00  0.00   0.0  0.00  0.46  1.00  0.00
   15  80     3     3   5.3  -6.0  5.99  0.00  0.00  0.00   0.0  0.00 0.000  0.00   107   107     0     0     0     0     0  0.00     0     0     0     0     0     0   0.0     0     0   375   -99  0.03  0.98   2.9  99.9  1.00  0.00  0.00  0.00  0.00  0.00  0.00   0.0  0.00  0.47  1.00  0.00
   15  81     4     4   4.1  -6.9  6.77  0.00  0.00  0.00   0.0  0.00 0.000  0.00   107   106     0     0     0     0     0  0.00     0     0     0     0     0     0   0.0     0     0   375   -99  0.03  0.98   3.5  99.9  1.00  0.00  0.00  0.00  0.00  0.00  0.00   0.0  0.00  0.59  0.95  0.00
   15  82     5     5   2.8  -7.8  7.21  0.00  0.00  0.00   0.0  0.00 0.000  0.00   106   106     1     0     0     0     0  0.00     0     0     0     0     0 .0000   0.0     0     0   375   -99  0.04  0.98   3.3  99.9  1.00  0.00  0.00  0.00  0.00  0.00  0.00   0.8  0.00  0.73  0.90  0.00
   15  83     6     6   6.6  -7.9  8.61  0.00  0.00  0.00   0.0  0.00 0.000  0.00   106   105     1     0     0     0     0  0.00     0     0     0     0     0 .0002   0.0     0     0   375   -99  0.05  0.98   3.5  99.9  1.00  0.00  0.00  0.00  0.00  0.00  0.00   0.4  0.00  0.34  0.85  0.00
   15  84     7     7   8.9  -7.7 10.00  0.00  0.00  0.00   0.0  0.00 0.000  0.00   106   105     2     0     0     0     0  0.00     0     0     0     0     0 .0007   0.0     0     0   375   -99  0.06  0.98   4.3  99.9  1.00  0.00  0.00  0.00  0.00  0.00  0.00   0.4  0.00  0.11  0.81  0.00
   15  85     8     8   6.3  -8.3 10.10  0.11  0.01  0.00   0.0  0.01 0.001  0.01   106   100     2     5     3     2     0  0.00     0     0     0     0     0 .0012   0.0     0     0   375   400  0.07  0.75   5.5  99.9  1.00  0.00  0.00  0.00  0.00  0.00  0.00   0.0  0.00  0.37  0.76  0.41
   15  86     9     9   6.5  -9.0 10.21  0.21  0.02  2.21   1.1  0.03 0.002  0.03   108    95     3    10     6     4     0  0.00     0     0     1     0     0 .0019   8.2     0     0   375   399  0.08  0.75   7.0  99.9  4.30  0.00  0.00  0.00  0.00  0.00  0.00   0.0  0.00  0.35  0.71  0.40
   15  87    10    10   6.4  -9.6 10.32  0.32  0.03  2.21   3.3  0.04 0.003  0.04   111    90     3    18    10     8     0  0.00     0     0     3     0     0 .0028  19.1     0     0   375   399  0.09  0.75   7.4  99.9  1.73  0.00  0.00  0.00  0.00  0.00  0.00   0.0  0.00  0.36  0.66  0.40
   15  88    11    11   9.5  -9.7 10.48  0.48  0.05  2.21   3.8  0.07 0.006  0.07   114    79     4    31    17    14     0  0.00     0     0     6     0     0 .0043  20.0     0     0   375   399  0.10  0.75   9.1  99.9  1.71  0.00  0.00  0.00  0.00  0.00  0.00   0.0  0.00  0.05  0.63  0.39
   15  89    12    12   6.7 -10.3 10.59  0.59  0.07  2.21   6.4  0.08 0.007  0.09   120    74     5    41    20    21     0  0.00     0     0    11     0     0 .0055  26.8     0     0   375   399  0.11  0.75  15.7  99.9  1.33  0.00  0.00  0.00  0.00  0.00  0.00   0.1  0.00  0.33  0.58  0.38
   15  90    13    13   7.8 -10.6 10.72  0.72  0.08  1.92   9.9  0.09 0.008  0.10   128    69     6    53    23    30     0  0.00     0     0    18     0     0 .0074  34.5     0     0   375   399  0.12  0.74  18.1  99.9  0.87  0.26  0.13  0.33  0.00  0.00  0.00   0.1  0.00  0.23  0.53  0.37
   15  91    14    14   3.3 -11.5 10.77  0.77  0.08  1.33   5.7  0.10 0.008  0.10   134    68     7    58    24    34     0  0.00     0     0    22     0     0 .0085  38.5     0     0   375   399  0.12  0.74  19.8  99.9  1.58  0.00  0.00  0.00  0.10  0.10  0.10   0.5  0.33  0.67  0.48  0.37
   15  92    15    15   3.1 -12.4 10.82  0.82  0.08  1.21   5.2  0.10 0.009  0.11   138    67     8    63    25    39     0  0.00     0     0    26     0     0 .0096  41.7     0     0   375   399  0.13  0.74  21.8  99.9  1.81  0.00  0.00  0.00  0.11  0.11  0.11   0.7  0.38  0.69  0.43  0.36
   15  93    16    16   4.2 -13.3 10.89  0.89  0.08  1.62   9.9  0.10 0.009  0.11   147    65    10    72    26    47     0  0.00     0     0    34     0     0 .0112  46.6     0     0   375   399  0.13  0.74  18.9  99.9  1.34  0.00  0.00  0.00  0.12  0.12  0.12   0.4  0.17  0.58  0.38  0.35
   15  94    17    17   3.6 -14.2 10.95  0.95  0.09  1.36   4.9  0.11 0.009  0.12   152    64    10    77    27    51     0  0.00     0     0    37     0     0 .0129  48.3     0     0   375   399  0.14  0.74  21.8  99.9  2.86  0.00  0.00  0.00  0.15  0.15  0.15   0.7  0.28  0.64  0.33  0.35
   15  95    18    18   2.5 -15.0 10.99  1.00  0.09  0.92   5.6  0.11 0.009  0.12   157    63    11    82    27    55     0  0.00     0     0    41     0     0 .0142  50.5     0     0   375   398  0.14  0.74  19.4  99.9  1.86  0.00  0.00  0.00  0.15  0.15  0.15   1.1  0.51  0.75  0.28  0.34
   15  96    19    19   1.9 -15.0 11.03  1.03  0.09  0.72   4.4  0.11 0.009  0.12   161    63    12    86    27    58     0  0.00     0     0    45     0     0 .0153  52.2     0     0   375   398  0.14  0.74  18.7  99.9  2.06  0.00  0.00  0.00  0.14  0.14  0.14   1.6  0.62  0.81  0.23  0.33
   15  97    20    20   2.9 -15.0 11.07  1.07  0.09  1.11   8.1  0.11 0.010  0.12   168    62    13    93    28    65     0  0.00     0     0    51     0     0 .0170  54.7     0     0   375   398  0.15  0.74  18.2  92.7  1.78  0.00  0.00  0.00  0.13  0.13  0.13   0.9  0.42  0.71  0.18  0.32
   15  98    21    21   6.6 -15.0 11.18  1.18  0.10  1.94  15.7  0.13 0.011  0.14   182    57    16   109    31    78     0  0.00     0     0    62     0     0 .0213  57.0     0     0   375   397  0.16  0.74  18.1  74.1  1.58  0.00  0.00  0.00  0.12  0.12  0.12   1.7  0.00  0.34  0.13  0.32
   15  99    22    22  10.2 -15.0 11.35  1.35  0.12  1.98  19.2  0.16 0.014  0.17   199    48    19   133    40    93     0  0.00     0     0    74     0     0 .0293  55.5     0     0   375   396  0.17  0.74  18.5  57.4  1.42  0.00  0.00  0.00  0.10  0.10  0.10   0.7  0.00  0.00  0.10  0.31
   15 100    23    23  11.4 -15.0 11.54  1.54  0.15  1.88  25.4  0.19 0.017  0.21   222    40    22   159    48   111     0  0.00     0     0    87     0     0 .0398  54.8     0     0   375   394  0.18  0.74  19.0  41.1  1.18  0.00  0.00  0.09  0.15  0.15  0.15   0.5  0.00  0.00  0.08  0.30
   15 101    24    24  11.7 -15.0 11.74  1.74  0.17  1.74  22.9  0.22 0.019  0.24   242    35    26   181    56   125     0  0.00     0     0    97     0     0 .0529  53.6     0     0   375   393  0.20  0.73  19.7  43.9  1.48  0.00  0.00  0.00  0.21  0.21  0.21   0.4  0.00  0.00  0.06  0.30
   15 102    25    25  12.3 -15.0 11.94  1.94  0.19  1.07  16.7  0.24 0.021  0.26   257    31    29   198    62   136     0  0.00     0     0   105     0     0 .0690  53.2     0     0   375   392  0.21  0.72  20.6  38.4  0.67  0.66  0.33  0.48  0.28  0.28  0.28   0.3  0.00  0.00  0.04  0.29
   15 103    26    26  11.9 -15.0 12.07  2.07  0.19  0.81  13.8  0.25 0.022  0.27   268    28    31   209    64   145     0  0.00     0     0   114     0 0.918 .0861  54.5     0     0   375   392  0.23  0.71  21.6  37.3  0.53  0.93  0.47  0.59  0.32  0.32  0.32   0.3  0.00  0.00  0.02  0.28
   15 104    27    27  12.1 -15.0 12.17  2.17  0.19  0.74  13.2  0.25 0.022  0.28   279    26    34   220    65   155     0  0.00     0     0   123     0 1.862 0.105  55.9     0     0   375   391  0.24  0.71  22.6  37.4  0.50  0.99  0.50  0.61  0.33  0.33  0.33   0.3  0.00  0.00  0.00  0.28
   15 105    28    28  14.4 -15.0 12.29  2.29  0.20  0.60  12.7  0.26 0.023  0.28   289    24    36   229    66   163     0  0.00     0     0   131     0 2.820 0.129  57.1     0     0   375   390  0.26  0.70  24.1  31.7  0.41  1.00  0.59  0.68  0.34  0.34  0.34   0.2  0.00  0.00  0.00  0.27
   15 106    29    29  15.7 -15.0 12.42  2.42  0.20  0.71  12.7  0.26 0.023  0.29   299    23    38   238    68   171     0  0.00     0     0   137     0 3.794 0.157  57.7     0     0   375   389  0.28  0.71  26.1  40.0  0.49  1.00  0.51  0.62  0.35  0.35  0.35   0.1  0.00  0.00  0.00  0.27
   15 107    30    30  10.9 -15.0 12.51  2.51  0.20  0.84  14.7  0.27 0.024  0.29   311    23    40   248    69   179     0  0.00     0     0   146     0 4.791 0.178  58.7     0     0   375   387  0.30  0.72  47.7  83.7  0.60  0.81  0.40  0.54  0.36  0.36  0.36   0.8  0.00  0.00  0.00  0.26
   15 108    31    31   5.5 -15.0 12.56  2.56  0.21  1.46  23.7  0.27 0.024  0.30   333    22    44   266    70   196     0  0.00     0     0   162     0 4.791 0.189  60.8     0     0   375   387  0.30  0.73  42.2  88.6  2.49  0.00  0.00  0.00  0.34  0.34  0.34   2.0  0.00  0.45  0.00  0.25
   15 109    32    32   6.4 -15.0 12.61  2.61  0.21  1.51  29.7  0.28 0.025  0.30   359    22    49   288    72   216     0  0.00     0     0   181     0 4.791 0.203  63.0     0     0   375   386  0.31  0.73  39.6  67.0  2.20  0.00  0.00  0.00  0.32  0.32  0.32   2.0  0.00  0.36  0.00  0.25
   15 110    33    33   8.1 -15.0 12.68  2.68  0.22  1.56  35.6  0.29 0.025  0.31   391    22    55   314    74   240     0  0.00     0     0   204     0 4.791 0.223  65.0     0     0   375   386  0.32  0.73  38.4  53.1  2.00  0.00  0.00  0.00  0.29  0.29  0.29   2.0  0.00  0.19  0.00  0.24
   15 111    34    34  10.7 -15.0 12.77  2.77  0.23  1.62  39.9  0.30 0.027  0.33   427    22    61   344    78   266     0  0.00     0     0   228     0 4.791 0.252  66.3     0     0   375   385  0.33  0.74  38.0  45.8  1.94  0.00  0.00  0.00  0.27  0.27  0.27   2.0  0.00  0.00  0.00  0.24
   15 112    35    35  11.2 -15.0 12.86  2.86  0.24  1.68  42.6  0.32 0.028  0.34   465    22    68   375    82   293     0  0.00     0     0   253     0 4.791 0.286  67.4     0     0   375   384  0.34  0.74  37.8  44.1  2.09  0.00  0.00  0.00  0.24  0.24  0.24   2.0  0.00  0.00  0.00  0.23
   15 113    36    36   6.1 -15.0 12.91  2.91  0.24  1.74  39.2  0.32 0.029  0.35   500    22    74   405    84   321     0  0.00     0     0   280     0 4.791 0.307  69.2     0     0   375   383  0.35  0.75  37.3  56.7  1.94  0.00  0.00  0.00  0.21  0.21  0.21   2.0  0.00  0.39  0.00  0.22
   15 114    37    37   8.8 -15.0 12.99  2.99  0.25  1.78  50.8  0.33 0.030  0.36   546    22    81   443    87   356     0  0.00     0     0   313     0 4.791 0.339  70.8     0     0   375   383  0.36  0.75  36.9  40.6  1.04  0.00  0.00  0.20  0.20  0.20  0.20   1.5  0.00  0.12  0.00  0.22
   15 115    38    38  11.4 -15.0 13.08  3.08  0.26  1.82  50.7  0.35 0.032  0.38   591    21    89   481    92   389     0  0.00     0     0   344     0 4.791 0.385  71.5     0     0   375   382  0.37  0.75  38.4  40.9  1.04  0.00  0.00  0.20  0.18  0.18  0.18   1.0  0.00  0.00  0.00  0.21
   15 116    39    39  15.1 -15.0 13.21  3.21  0.28  1.86  42.4  0.38 0.034  0.41   629    21    95   513   100   413     0  0.00     0     0   365     0 4.791 0.452  71.1     0     0   375   380  0.39  0.75  40.3  49.0  1.61  0.00  0.00  0.00  0.16  0.16  0.16   1.1  0.00  0.00  0.00  0.21
   15 117    40    40  14.5 -15.0 13.33  3.33  0.29  1.91  60.0  0.40 0.037  0.44   683    21   104   558   107   451     0  0.00     0     0   399     0 4.791 0.521  71.5     0     0   375   379  0.40  0.76  45.9  40.3  2.09  0.00  0.00  0.00  0.13  0.13  0.13   1.4  0.00  0.00  0.00  0.20
   15 118    41    41   8.3 -15.0 13.40  3.40  0.30  1.96  44.5  0.42 0.038  0.46   724    21   110   592   111   482     0  0.00     0     0   428     0 4.791 0.564  72.2     0     0   375   377  0.41  0.76  51.6  73.5  4.34  0.00  0.00  0.00  0.11  0.11  0.11   2.0  0.00  0.17  0.00  0.20
   15 119    42    42   7.0 -15.0 13.45  3.45  0.30  1.99  59.3  0.43 0.039  0.47   777    21   118   637   113   524     0  0.00     0     0   469     0 4.791 0.603  73.6     0     0   375   377  0.42  0.76  50.2  55.1  3.55  0.00  0.00  0.00  0.10  0.10  0.10   2.0  0.00  0.30  0.00  0.19
   15 120    43    43  10.4 -15.0 13.54  3.54  0.32  2.01  55.5  0.45 0.041  0.49   827    21   126   680   119   561     0  0.00     0     0   503     0 4.791 0.664  74.0     0     0   375   376  0.43  0.76  50.3  55.3  3.83  0.00  0.00  0.00  0.09  0.09  0.09   2.0  0.00  0.00  0.00  0.19
   15 121    44    44   8.6 -15.0 13.61  3.61  0.32  2.03  25.4  0.46 0.042  0.50   850    21   130   699   123   577     0  0.00     0     0   516     0 4.791 0.718  73.8     0     0   375   375  0.44  0.77  75.1  99.9  9.69  0.00  0.00  0.00  0.08  0.08  0.08   2.0  0.00  0.14  0.00  0.18
   15 122    45    45  10.5 -15.0 13.70  3.70  0.34  2.06  47.9  0.48 0.044  0.53   894    21   136   736   129   608     0  0.00     0     0   544     0 4.791 0.787  74.0     0     0   375   374  0.45  0.77  72.3  94.1  4.96  0.00  0.00  0.00  0.07  0.07  0.07   2.0  0.00  0.00  0.00  0.18
   15 123    46    46  13.2 -15.0 13.81  3.81  0.35  2.08  50.2  0.51 0.047  0.55   939    21   143   775   136   639     0  0.00     0     0   572     0 4.791 0.877  73.8     0     0   375   373  0.46  0.77  79.1  93.6  4.74  0.00  0.00  0.00  0.06  0.06  0.06   2.0  0.00  0.00  0.00  0.17
   15 124    47    47  17.5 -15.0 13.96  3.96  0.37  2.10  55.2  0.54 0.050  0.59   989    21   151   817   146   672     0  0.00     0     0   600     0 4.791 1.002  73.3     0     0   375   372  0.48  0.77  69.5  68.6  4.15  0.00  0.00  0.00  0.05  0.05  0.05   2.0  0.00  0.00  0.00  0.17
   15 125    48    48  19.4 -15.0 14.12  4.12  0.39  2.13  83.7  0.58 0.055  0.64  1065    21   162   882   158   725     0  0.00     0     0   646     0 4.791 1.148  73.3     0     0   375   370  0.50  0.78  70.3  44.3  2.79  0.00  0.00  0.00  0.03  0.03  0.03   2.0  0.00  0.00  0.00  0.16
   15 126    49    49  11.6 -15.0 14.21  4.21  0.40  2.16  62.0  0.60 0.056  0.65  1120    21   170   929   162   766     0  0.00     0     0   685     0 6.815 1.241  73.8     0     0   375   368  0.51  0.78  89.3  93.0  4.95  0.00  0.00  0.00  0.02  0.02  0.02   2.0  0.00  0.00  0.00  0.16
   15 127    50    50  13.0 -15.0 14.32  4.32  0.41  2.17  81.9  0.62 0.058  0.67  1192    21   181   990   168   823     0  0.00     0     0   738     0 9.097 1.352  74.5     0     0   375   367  0.53  0.78  76.8  57.9  3.77  0.00  0.00  0.00  0.02  0.02  0.02   2.0  0.00  0.00  0.00  0.15
   15 128    51    51  15.5 -15.0 14.45  4.45  0.42  2.19  98.2  0.64 0.061  0.70  1279    21   193  1064   174   890     0  0.00     0     0   802     0 11.82 1.491  75.3     0     0   375   366  0.54  0.78  71.0  42.6  3.18  0.00  0.00  0.00  0.01  0.01  0.01   2.0  0.00  0.00  0.00  0.15
   15 129    52    52  14.2 -15.0 14.57  4.57  0.43  2.21  72.5  0.66 0.063  0.72  1343    21   202  1119   180   938     0  0.00     0     0   847     0 14.33 1.629  75.7     0     0   375   364  0.56  0.78  74.7  64.2  4.88  0.00  0.00  0.00  0.00  0.00  0.00   2.0  0.00  0.00  0.00  0.15
   15 130    53    53  13.2 -15.0 14.68  4.68  0.44  2.21  97.3  0.67 0.065  0.74  1429    21   215  1193   186  1007     0  0.00     0     0   912     0 16.66 1.762  76.4     0     0   396   363  0.57  0.79  72.6  46.8  3.84  0.00  0.00  0.00  0.00  0.00  0.00   2.0  0.00  0.00  0.00  0.14
   15 131    54    54  13.7 -15.0 14.79  4.79  0.45  2.21 118.1  0.70 0.068  0.76  1535    21   230  1284   192  1091     0  0.00     0     0   992     0 19.09 1.909  77.3     0     0   417   362  0.59  0.79  70.6  36.9  3.30  0.00  0.00  0.00  0.00  0.00  0.00   2.0  0.00  0.00  0.00  0.14
   15 132    55    55  18.0 -15.0 14.94  4.94  0.46  2.21 131.6  0.73 0.072  0.80  1653    21   246  1386   203  1183     0  0.00     0     0  1077     0 21.00 2.115  77.8     0     0   445   360  0.61  0.79  69.7  29.8  2.88  0.00  0.00  0.00  0.00  0.00  0.00   2.0  0.00  0.00  0.00  0.13
   15 133    56    56  17.8 -15.0 15.09  5.09  0.49  2.21  92.4  0.79 0.078  0.87  1737    21   257  1459   221  1237     0  0.00     0     0  1122     0 21.00 2.334  76.9     0     0   473   358  0.62  0.79  75.6  47.4  4.53  0.00  0.00  0.00  0.00  0.00  0.00   1.7  0.00  0.00  0.00  0.13
   15 134    57    57  15.0 -15.0 15.22  5.22  0.51  2.21  89.9  0.84 0.084  0.92  1816    21   268  1526   236  1291     0  0.00     0     0  1166     0 24.44 2.527  76.4     0     0   496   356  0.64  0.79  75.5  51.4  5.15  0.00  0.00  0.00  0.00  0.00  0.00   2.0  0.00  0.00  0.00  0.13
   15 135    58    58  11.4 -15.0 15.31  5.31  0.53  2.21  95.8  0.88 0.088  0.97  1901    21   280  1600   248  1352     0  0.00     0     0  1220     0 27.07 2.681  76.3     0     0   514   354  0.65  0.79  74.9  51.9  5.47  0.00  0.00  0.00  0.00  0.00  0.00   2.0  0.00  0.00  0.00  0.12
   15 136    59    59  12.8 -15.0 15.42  5.42  0.54  2.21 135.8  0.92 0.094  1.01  2023    21   297  1705   261  1444     0  0.00     0     0  1303     0 30.02 2.859  76.4     0     0   534   353  0.66  0.80  73.2  34.3  3.86  0.00  0.00  0.00  0.00  0.00  0.00   2.0  0.00  0.00  0.00  0.12
   15 137    60    60  14.1 -15.0 15.54  5.54  0.56  2.21 101.3  0.97 0.100  1.07  2113    21   309  1783   277  1506     0  0.00     0     0  1355     0 33.29 3.069  76.0     0     0   556   351  0.67  0.80  73.5  45.5  5.40  0.00  0.00  0.00  0.00  0.00  0.00   1.6  0.00  0.00  0.00  0.12
   15 138    61    61  15.4 -15.0 15.66  5.66  0.58  2.21 157.1  1.03 0.107  1.14  2253    21   328  1904   295  1610     0  0.00     0     0  1447     0 36.87 3.307  76.0     0     0   580   349  0.69  0.80  71.9  27.4  3.46  0.00  0.00  0.00  0.00  0.00  0.00   1.3  0.00  0.00  0.00  0.11
   15 139    62    62  13.9 -15.0 15.78  5.78  0.60  2.21 115.3  1.08 0.113  1.20  2356    21   341  1993   312  1681     0  0.00     0     0  1508     0 40.11 3.535  75.6     0     0   602   348  0.70  0.80  87.0  47.7  4.11  0.00  0.00  0.00  0.00  0.00  0.00   1.3  0.00  0.00  0.00  0.11
   15 140    63    63   8.4 -15.0 15.85  5.85  0.61  2.21  76.5  1.12 0.117  1.24  2425    21   350  2054   323  1732     0  0.00     0     0  1552     0 40.72 3.678  75.5     0     0   602   347  0.71  0.80 105.4  99.5  9.47  0.00  0.00  0.00  0.00  0.00  0.00   2.0  0.00  0.16  0.00  0.00
   15 141    64    64   9.8 -15.0 15.93  5.93  0.63  2.21 100.9  1.16 0.123  1.29  2518    21   362  2134   337  1798     0  0.00     0     0  1608     0 41.43 3.848  75.3     0     0   602   346  0.72  0.80 104.9  71.9  7.06  0.00  0.00  0.00  0.00  0.00  0.00   2.0  0.00  0.02  0.00  0.00
   15 142    65    65   9.9 -15.0 16.01  6.01  0.64  2.21 147.1  1.22 0.129  1.35  2652    21   379  2252   353  1899     0  0.00     0     0  1699     0 42.14 4.027  75.4     0     0   602   345  0.73  0.81  96.5  44.8  4.94  0.00  0.00  0.00  0.00  0.00  0.00   2.0  0.00  0.01  0.00  0.00
   15 143    66    66  11.7 -15.0 16.11  6.11  0.67  2.21 142.4  1.31 0.140  1.45  2783    21   395  2366   382  1985     0  0.00     0     0  1765     0 42.99 4.248  74.6     0     0   602   343  0.74  0.81  97.7  45.1  5.14  0.00  0.00  0.00  0.00  0.00  0.00   1.2  0.00  0.00  0.00  0.00
   15 144    67    67  12.1 -15.0 16.21  6.21  0.70  2.21 126.7  1.40 0.152  1.55  2898    21   409  2468   411  2056     0  0.00     0     0  1818     0 43.88 4.488  73.7     0     0   602   341  0.75  0.81  97.3  50.2  5.99  0.00  0.00  0.00  0.00  0.00  0.00   1.2  0.00  0.00  0.00  0.00
   15 145    68    68  14.6 -15.0 30.15  6.33  0.72  2.21 150.8  1.52 0.166  1.68  3036    21   426  2589   447  2142     0  0.00     0     0  1880     0 44.95 4.786  72.6     0     0   602   339  0.76  0.81  96.5  39.4  4.91  0.00  0.00  0.00  0.00  0.00  0.00   0.9  0.00  0.00  0.00  0.00
   15 146    69    69  11.6 -15.0 30.67  6.43  0.74  2.21 136.8  1.61 0.177  1.78  3162    21   441  2699   476  2223     0  0.00     0     0  1941     0 45.80 5.033  71.9     0     0   602   338  0.77  0.81  95.1  46.0  6.07  0.00  0.00  0.00  0.00  0.00  0.00   0.9  0.00  0.00  0.00  0.00
   15 147    70    70   9.2 -15.0 31.08  6.51  0.76  2.21 163.7  1.67 0.186  1.86  3313    21   459  2832   497  2335     0  0.00     0     0  2035     0 46.48 5.237  71.9     0     0   602   337  0.78  0.82  92.8  39.6  5.53  0.00  0.00  0.00  0.00  0.00  0.00   0.8  0.00  0.07  0.00  0.00
   15 148    71    71  11.9 -14.4 31.61  6.61  0.78  2.21 222.9  1.77 0.199  1.97  3518    21   484  3013   527  2487     0  0.00     0     0  2161     0 47.36 5.511  71.7     0     0   602   335  0.79  0.82  89.9  25.9  3.90  0.00  0.00  0.00  0.00  0.00  0.00   0.5  0.00  0.00  0.00  0.00
   15 149    72    72  15.6 -13.2 32.30  6.74  0.80  2.16 216.1  1.89 0.216  2.10  3717    21   507  3188   564  2624     0  0.00     0     0  2266     0 48.52 5.888  71.1     0     0   602   334  0.81  0.82  87.2  23.5  3.61  0.00  0.00  0.00  0.02  0.02  0.02   0.4  0.00  0.00  0.00  0.00
   15 150    73    73  14.9 -12.4 32.97  6.86  0.82  2.09 142.7  2.00 0.230  2.23  3847    21   522  3304   600  2704     0  0.00     0     0  2321     0 49.63 6.267  70.2     0     0   602   333  0.82  0.82  86.0  35.0  4.75  0.00  0.00  0.00  0.05  0.05  0.05   0.4  0.00  0.00  0.00  0.00
   15 151    74    74  15.4 -11.4 33.65  6.99  0.83  2.04 185.4  2.11 0.246  2.35  4018    21   542  3454   636  2818     0  0.00     0     0  2405     0 50.77 6.669  69.6     0     0   602   331  0.83  0.82  83.9  25.1  3.57  0.00  0.00  0.00  0.08  0.08  0.08   0.4  0.00  0.00  0.00  0.00
   15 152    75    75  19.0 -10.0 34.50  7.15  0.86  1.99 204.4  2.31 0.271  2.58  4205    21   565  3619   701  2918     0  0.00     0     0  2461     0 52.19 7.185  68.0     0     0   602   330  0.85  0.82  81.7  19.9  3.02  0.00  0.00  0.00  0.10  0.10  0.10   0.2  0.00  0.00  0.00  0.00
   15 153    76    76  19.8  -8.6 35.37  7.31  0.88  1.84 179.1  2.51 0.297  2.81  4369    21   584  3763   767  2996     0  0.00     0     0  2497     0 53.66 7.742  66.3     0     0   602   327  0.87  0.81  79.8  20.2  3.22  0.00  0.00  0.00  0.17  0.17  0.17   0.1  0.00  0.00  0.00  0.00
   15 154    77    77  20.5  -6.9 36.28  7.48  0.90  1.71 197.4  2.70 0.322  3.02  4549    21   606  3922   829  3092     0  0.00     0     0  2549     0 55.20 8.339  65.0     0     0   602   325  0.89  0.81  77.3  16.1  2.30  0.00  0.00  0.00  0.23  0.23  0.23   0.1  0.00  0.03  0.00  0.00
   15 155    78    78  19.7  -6.0 37.16  7.65  0.91  1.61 179.6  2.87 0.345  3.22  4713    21   626  4065   888  3177     0  0.00     0     0  2593     0 56.67 8.935  63.8     0     0   602   323  0.91  0.81  75.0  16.5  2.26  0.00  0.00  0.00  0.27  0.27  0.27   0.1  0.00  0.00  0.00  0.00
   15 156    79    79  21.8  -6.0 38.12  7.83  0.92  1.53 164.5  3.03 0.367  3.40  4862    21   644  4197   942  3254     0  0.00     0     0  2632     0 58.32 9.615  62.7     0     0   602   322  0.93  0.81  72.8  16.0  1.93  0.00  0.00  0.00  0.31  0.31  0.31   0.1  0.00  0.12  0.00  0.00
   15 157    80    80  21.8  -6.0 39.09  8.01  0.93  1.48 187.3  3.19 0.390  3.58  5033    21   665  4347   997  3350     0  0.00     0     0  2685     0 59.96 10.32  61.8     0     0   602   320  0.95  0.81  72.0  13.2  1.36  0.00  0.00  0.00  0.33  0.33  0.33   0.1  0.00  0.12  0.00  0.00
   15 158    81    81  21.5  -6.0 40.04  8.19  0.95  1.43 146.0  3.43 0.420  3.85  5166    21   681  4464  1080  3384     0  0.00     0     0  2673     0 61.58 11.03  59.9     0     0   602   318  0.97  0.81  69.6  16.0  2.12  0.00  0.00  0.00  0.35  0.35  0.35   0.4  0.00  0.10  0.00  0.00
   15 159    82    82  16.1  -6.0 40.71  8.19  0.94  1.43 126.2  3.41 0.428  3.83  5282    21   694  4567  1076  3486     0  0.00     0     0  2739     5 61.58 11.58  60.1     0     0   602   317  0.98  0.81  84.4  25.2  1.76  0.00  0.00  0.00  0.35  0.35  0.35   0.5  0.00  0.00  0.00  0.00
   15 160    83    83  12.3  -6.0 41.23  8.19  0.94  1.47  68.9  3.39 0.432  3.82  5345    21   701  4623  1073  3542     0  0.00     0     0  2777     9 61.58 12.01  60.2     0     0   602   316  0.99  0.82  84.9  52.8  9.30  0.00  0.00  0.00  0.33  0.33  0.33   2.0  0.00  0.00  0.00  0.00
   15 161    84    84  14.7  -6.0 41.84  8.19  0.94  1.53 127.3  3.37 0.441  3.81  5463    21   714  4728  1068  3647     0  0.00     0     0  2844    13 61.58 12.52  60.3     0     0   602   315  1.01  0.83  83.3  27.3  4.94  0.00  0.00  0.00  0.31  0.31  0.31   2.0  0.00  0.00  0.00  0.00
   15 162    85    85  18.3  -6.0 42.60  8.19  0.94  1.59 143.5  3.34 0.450  3.79  5597    21   728  4847  1062  3767     0  0.00     0     0  2921    18 61.58 13.17  60.5     0     0   602   315  1.02  0.83  81.2  22.7  4.25  0.00  0.00  0.00  0.28  0.28  0.28   2.0  0.00  0.00  0.00  0.00
   15 163    86    86  20.9  -6.0 43.47  8.19  0.94  1.66 208.8  3.31 0.465  3.78  5791    21   747  5022  1056  3942     0  0.00     0     0  3033    25 61.58 13.93  60.7     0     0   602   314  1.04  0.84  77.4  14.5  2.81  0.00  0.00  0.00  0.25  0.25  0.25   2.0  0.00  0.06  0.00  0.00
   15 164    87    87  20.1  -6.0 44.31  8.19  0.94  1.73 178.3  3.28 0.477  3.76  5958    21   763  5173  1050  4093     0  0.00     0     0  3129    31 61.58 14.69  60.9     0     0   602   313  1.06  0.85  83.5  19.6  2.21  0.00  0.00  0.00  0.22  0.22  0.22   2.0  0.00  0.01  0.00  0.00
   15 165    88    88  20.1  -6.0 45.15  8.19  0.94  1.80 175.0  3.25 0.489  3.74  6122    21   778  5323  1043  4242     0  0.00     0     0  3225    37 61.58 15.45  61.0     0     0   602   312  1.07  0.85 101.4  25.2  3.72  0.00  0.00  0.00  0.18  0.18  0.18   2.0  0.00  0.01  0.00  0.00
   15 166    89    89  15.1  -6.0 45.78  8.19  0.94  1.87 101.6  3.23 0.496  3.73  6217    21   786  5410  1040  4329     0  0.00     0     0  3282    41 61.58 16.04  61.1     0     0   602   311  1.08  0.86 120.8  60.5  9.63  0.00  0.00  0.00  0.15  0.15  0.15   2.0  0.00  0.00  0.00  0.00
   15 167    90    90  15.2  -6.0 46.41  8.19  0.93  1.92 165.7  3.21 0.508  3.72  6373    21   798  5553  1035  4473     0  0.00     0     0  3373    46 61.58 16.64  61.2     0     0   602   310  1.10  0.87 118.8  37.1  6.76  0.00  0.00  0.00  0.13  0.13  0.13   2.0  0.00  0.00  0.00  0.00
   15 168    91    91  14.8  -6.0 47.03  8.19  0.93  1.98 189.5  3.19 0.523  3.71  6552    21   812  5719  1030  4638     0  0.00     0     0  3476    50 61.58 17.23  61.3     0     0   602   310  1.11  0.87 116.4  32.9  6.20  0.00  0.00  0.00  0.10  0.10  0.10   2.0  0.00  0.00  0.00  0.00
   15 169    92    92  13.2  -6.0 47.58  8.19  0.93  2.03 178.1  3.17 0.536  3.71  6721    21   825  5875  1026  4794     0  0.00     0     0  3574    54 61.58 17.77  61.4     0     0   602   309  1.12  0.88 126.3  40.5  7.16  0.00  0.00  0.00  0.08  0.08  0.08   2.0  0.00  0.00  0.00  0.00
   15 170    93    93  13.2  -6.0 48.13  8.19  0.93  2.08 139.4  3.15 0.547  3.70  6853    21   834  5998  1022  4917     0  0.00     0     0  3651    58 61.58 18.31  61.5     0     0   602   308  1.13  0.88 125.0  52.8  9.55  0.00  0.00  0.00  0.06  0.06  0.06   2.0  0.00  0.00  0.00  0.00
   15 171    94    94  12.2  -6.0 48.64  8.19  0.93  2.12 158.1  3.13 0.559  3.69  7004    21   845  6138  1019  5021     0  0.00    36    36  3739    62 61.58 18.82  61.5     0     0   602   308  1.14  0.89 124.1  48.3  9.38  0.00  0.00  0.00  0.04  0.04  0.04   2.0  0.00  0.00  0.00  0.00
   15 172    95    95  13.6  -6.0 49.20  8.19  0.93  2.16 192.2  3.11 0.574  3.69  7187    21   857  6309  1014  5026     0  0.00   203    81  3846    66 61.58 19.39  61.6     0     0   602   307  1.15  0.89 122.6  38.6  7.62  0.00  0.00  0.00  0.02  0.02  0.02   2.0  0.00  0.00  0.00  0.00
   15 173    96    96  16.2  -6.0 49.88  8.19  0.93  2.21 201.1  3.09 0.590  3.68  7379    21   868  6489  1009  5019     0  0.00   390   128  3959    71 61.58 20.09  61.7     0     0   602   307  1.17  0.90 130.4  37.7  7.04  0.00  0.00  0.00  0.00  0.00  0.00   2.0  0.00  0.00  0.00  0.00
   15 174    97    97  13.1  -6.0 51.70  8.19  0.93  2.21 180.3  3.07 0.604  3.68  7552    21   879  6652  1005  4999     0  0.00   573   170  4060    75 61.58 20.66  61.7     0     0   602   306  1.18  0.90 131.3  45.5  8.48  0.00  0.00  0.00  0.00  0.00  0.00   2.0  0.00  0.00  0.00  0.00
   15 175    98    98  13.9  -6.0 54.02  8.19  0.93  2.21 235.3  3.06 0.622  3.68  7778    21   891  6865  1001  5042     0  0.00   743   226  4192    79 61.58 21.27  61.8     0     0   602   305  1.19  0.91 128.4  33.1  6.41  0.00  0.00  0.00  0.00  0.00  0.00   2.0  0.00  0.00  0.00  0.00
   15 176    99    99  13.8  -6.0 56.33  8.19  0.92  2.21 263.7  3.04 0.642  3.68  8032    21   903  7107   997  5076     0  0.00   952   288  4341    82 61.58 21.89  61.8     0     0   602   305  1.20  0.92 125.0  28.7  6.01  0.00  0.00  0.00  0.00  0.00  0.00   2.0  0.00  0.00  0.00  0.00
   15 177   100   100  16.5  -6.0 59.08  8.19  0.92  2.21 272.5  3.02 0.662  3.68  8296    21   914  7360   992  5106     0  0.00  1175   354  4498    87 61.58 22.63  61.8     0     0   602   304  1.21  0.93 121.2  25.3  5.55  0.00  0.00  0.00  0.00  0.00  0.00   2.0  0.00  0.00  0.00  0.00
   15 178   101   101  18.4  -6.0 65.34  8.19  0.92  2.21 204.9  2.99 0.676  3.67  8495    21   921  7553   987  5085     0  0.00  1390   404  4618    92 61.58 23.47  61.9     0     0   602   303  1.23  0.94 119.7  32.5  7.18  0.00  0.00  0.00  0.00  0.00  0.00   2.0  0.00  0.00  0.00  0.00
   15 179   102   102  17.9  -6.0 70.43  8.19  0.92  2.21 211.6  2.97 0.692  3.66  8702    21   926  7755   982  5120     0  0.00  1557   457  4744    97 61.58 24.29  61.9     0     0   602   303  1.24  0.95 117.2  31.1  6.99  0.00  0.00  0.00  0.00  0.00  0.00   2.0  0.00  0.00  0.00  0.00
   15 180   103   103  18.9  -6.0 71.64  8.19  0.92  2.21 240.7  2.95 0.710  3.66  8939    21   930  7988   976  5173     7  0.00  1730   524  4882   102 61.58 25.16  62.0 16849 .0000   602   302  1.26  0.97 114.1  26.0  4.56  0.00  0.00  0.00  0.00  0.00  0.00   2.0  0.00  0.00  0.00  0.00
   15 181   104   104  20.6  -6.0 72.96  8.19  0.92  2.21 276.8  2.92 0.704  3.62  9213    21   932  8259   970  5183    35  0.00  1964   553  5131   107 61.58 26.12  63.2 16849 .0002   602   301  1.27  0.98 110.4  20.9  3.66  0.00  0.00  0.00  0.00  0.00  0.00   2.0  0.00  0.04  0.00  0.00
   15 182   105   105  21.0  -6.0 74.31  8.19  0.91  2.21 261.1  2.89 0.699  3.59  9471    21   934  8515   964  5326    88  0.01  2025   605  5340   113 61.58 27.10  64.2 16849 .0005   602   300  1.29  0.98 107.1  21.4  3.69  0.00  0.00  0.00  0.00  0.00  0.00   2.0  0.00  0.07  0.00  0.00
   15 183   106   106  22.2  -6.0 75.73  8.19  0.91  2.21 258.5  2.86 0.693  3.56  9726    21   936  8769   957  5447   169  0.02  2076   686  5518   119 61.58 28.14  65.1 16849 .0010   602   299  1.31  0.98 104.1  20.6  2.77  0.00  0.00  0.00  0.00  0.00  0.00   2.0  0.00  0.15  0.00  0.00
   15 184   107   107  23.0  -6.0 77.21  8.19  0.91  2.21 282.1  2.83 0.687  3.52 10005    21   938  9045   950  5563   280  0.03  2126   798  5689   125 61.58 29.22  65.9 16849 .0017   602   298  1.33  0.98 100.7  17.9  2.22  0.00  0.00  0.00  0.00  0.00  0.00   1.8  0.00  0.20  0.00  0.00
   15 185   108   108  24.6  -6.0 78.78  8.19  0.91  2.21 272.4  2.80 0.681  3.48 10274    21   941  9312   943  5646   429  0.05  2162   947  5813   132 61.58 30.37  66.4 16849 .0025   602   297  1.35  0.98  97.5  17.5  1.40  0.00  0.00  0.00  0.00  0.00  0.00   0.8  0.00  0.30  0.00  0.00
   15 186   109   109  25.5  -6.0 80.09  8.19  0.91  2.10 250.4  2.77 0.675  3.45 10521    21   942  9557   935  5685   619  0.06  2180  1136  5877   139 61.58 31.57  66.8 16849 .0037   602   296  1.37  0.98  94.5  17.3  1.20  0.00  0.00  0.08  0.00  0.00  0.00   0.4  0.05  0.37  0.00  0.00
   15 187   110   110  23.2  -6.0 80.42  8.19  0.90  1.71 171.0  2.76 0.669  3.43 10690    21   943  9725   935  5661   818  0.08  2170  1335  5847   141 61.58 32.66  66.7 16849 .0049   602   295  1.39  0.98  93.3  21.4  0.79  0.43  0.21  0.40  0.01  0.01  0.01   0.2  0.00  0.21  0.00  0.00
   15 188   111   111  25.1  -6.0 80.78  8.19  0.90  0.97 120.9  2.70 0.663  3.36 10808    21   944  9843   916  5594  1033  0.10  2146  1551  5764   154 61.58 33.85  66.6 16849 .0061   602   294  1.41  0.98  96.3  17.0  0.48  1.00  0.52  0.63  0.08  0.08  0.08   0.1  0.01  0.34  0.00  0.00
   15 189   112   112  17.4  -6.0 81.03  8.19  0.90  1.79 142.0  2.69 0.660  3.35 10948    21   944  9982   917  5585  1182  0.12  2142  1700  5755   156 61.58 34.67  66.6 16849 .0070   602   293  1.42  0.98 101.3  33.2  3.12  0.00  0.00  0.00  0.19  0.19  0.19   2.0  0.00  0.00  0.00  0.00
   15 190   113   113  13.9  -6.0 81.23  8.19  0.90  1.84 174.6  2.68 0.657  3.34 11121    21   946 10154   917  5632  1286  0.13  2162  1804  5824   157 61.58 35.32  66.9 16849 .0076   602   293  1.44  0.98  98.9  29.0  2.91  0.00  0.00  0.00  0.17  0.17  0.17   2.0  0.00  0.00  0.00  0.00
   15 191   114   114  14.9  -6.0 81.44  8.19  0.90  1.88 214.8  2.68 0.653  3.33 11333    21   948 10364   917  5696  1404  0.14  2189  1922  5917   158 61.58 36.03  67.2 16849 .0083   602   292  1.45  0.98  96.2  22.8  2.31  0.00  0.00  0.00  0.15  0.15  0.15   1.7  0.00  0.00  0.00  0.00
   15 192   115   115  18.3  -6.0 81.70  8.19  0.89  0.88 114.7  2.62 0.649  3.27 11446    21   948 10476   898  5666  1561  0.15  2180  2079  5885   171 61.58 36.89  67.3 16849 .0093   602   291  1.46  0.98  95.6  18.1  0.45  1.00  0.55  0.65  0.13  0.13  0.13   0.2  0.00  0.00  0.00  0.00
   15 193   116   116  20.5  -6.0 82.00  8.19  0.89  0.81  89.6  2.56 0.645  3.20 11534    21   948 10564   879  5605  1737  0.16  2158  2255  5810   184 61.58 37.87  67.2 16849 .0103   602   291  1.48  0.98  95.4  20.9  0.46  1.00  0.54  0.65  0.20  0.20  0.20   0.2  0.00  0.03  0.00  0.00
   15 194   117   117  18.4  -6.0 82.26  8.19  0.89  1.19  77.7  2.55 0.641  3.19 11610    21   948 10640   879  5547  1895  0.18  2134  2413  5730   185 61.58 38.74  66.9 16849 .0112   602   290  1.49  0.98  95.3  37.3  0.75  0.49  0.25  0.42  0.29  0.29  0.29   0.1  0.00  0.00  0.00  0.00
   15 195   118   118  20.6  -6.0 82.55  8.19  0.88  0.68  62.8  2.49 0.637  3.13 11672    21   948 10702   861  5467  2072  0.19  2104  2590  5627   198 61.58 39.72  66.7 16849 .0123   602   289  1.51  0.98  95.4  25.0  0.49  1.00  0.51  0.62  0.37  0.37  0.37   0.1  0.00  0.04  0.00  0.00
   15 196   119   119  21.7  -6.0 82.86  8.19  0.87  0.48  45.6  2.43 0.633  3.06 11716    21   948 10747   843  5368  2258  0.21  2067  2776  5498   210 61.58 40.74  66.4 16849 .0134   602   288  1.53  0.98  95.8  23.7  0.42  1.00  0.58  0.68  0.49  0.49  0.49   0.1  0.00  0.11  0.00  0.00
   15 197   120   120  22.4  -6.0 83.18  8.19  0.87  0.30  34.7  2.37 0.629  3.00 11749    21   947 10781   826  5258  2450  0.23  2025  2968  5352   222 61.58 41.80  66.0 16849 .0145   602   288  1.55  0.98  96.4  19.0  0.32  1.00  0.68  0.75  0.58  0.58  0.58   0.1  0.00  0.16  0.00  0.00
   15 198   121   121  24.6  -6.0 83.53  8.19  0.85  0.22  26.1  2.27 0.624  2.89 11774    21   946 10806   792  5131  2661  0.25  1978  3179  5188   244 61.58 42.97  65.7 16849 .0158   602   287  1.57  0.98  97.2  18.0  0.29  1.00  0.71  0.78  0.66  0.66  0.66   0.1  0.00  0.31  0.00  0.00
   15 199   122   122  22.0  -6.0 83.85  8.19  0.84  0.18  18.9  2.17 0.620  2.79 11792    21   945 10825   759  5014  2850  0.26  1936  3367  5039   265 61.58 44.01  65.4 16849 .0169   602   286  1.59  0.98  98.0  22.4  0.30  1.00  0.70  0.77  0.72  0.72  0.72   0.0  0.00  0.13  0.00  0.00
   15 200   123   123  22.4  -6.0 84.17  8.19  0.83  0.14  13.1  2.07 0.616  2.69 11804    21   945 10838   728  4891  3042  0.28  1891  3559  4880   285 61.58 45.07  65.0 16849 .0181   602   285  1.60  0.98  99.1  24.3  0.27  1.00  0.73  0.79  0.77  0.77  0.77   0.0  0.00  0.16  0.00  0.00
[...]
   15 154    77    77  20.5  -6.9 36.28  7.48  0.58  0.76  56.5  1.03 0.117  1.14  1657    21   281  1355   313  1042     0  0.00     0     0   856     0 66.07 4.779  63.2     0     0   482   328  0.89  0.77  87.0  29.0  2.25  0.00  0.00  0.00  0.65  0.65  0.65   0.1  0.00  0.03  0.00  0.00
   15 155    78    78  19.7  -6.0 37.16  7.65  0.60  0.74  53.3  1.07 0.123  1.19  1700    21   288  1391   328  1062     0  0.00     0     0   866     0 71.07 5.055  62.2     0     0   482   326  0.91  0.77  86.0  30.0  2.40  0.00  0.00  0.00  0.67  0.67  0.67   0.1  0.00  0.00  0.00  0.00
   15 156    79    79  21.8  -6.0 38.12  7.83  0.61  0.72  50.4  1.11 0.129  1.24  1741    21   295  1424   342  1082     0  0.00     0     0   875     0 76.35 5.369  61.4     0     0   482   324  0.93  0.77  85.5  29.5  2.01  0.00  0.00  0.00  0.68  0.68  0.68   0.2  0.00  0.12  0.00  0.00
   15 157    80    80  21.8  -6.0 39.09  8.01  0.62  0.71  59.7  1.15 0.135  1.29  1789    21   303  1465   357  1108     0  0.00     0     0   889     0 81.81 5.689  60.7     0     0   482   322  0.95  0.78  87.1  25.0  1.62  0.00  0.00  0.00  0.68  0.68  0.68   0.1  0.00  0.12  0.00  0.00
   15 158    81    81  21.5  -6.0 40.04  8.19  0.65  0.70  47.7  1.22 0.144  1.37  1827    21   309  1497   383  1114     0  0.00     0     0   880     0 87.45 6.014  58.8     0     0   482   319  0.97  0.78  86.1  30.6  2.49  0.00  0.00  0.00  0.68  0.68  0.68   0.1  0.00  0.10  0.00  0.00
   15 159    82    82  16.1  -6.0 40.71  8.19  0.64  0.66  40.2  1.19 0.144  1.33  1863    21   314  1528   374  1147     0  0.00     0     0   906     7 87.45 6.263  59.6     0     0   481   318  0.98  0.78 101.3  45.8  2.19  0.00  0.00  0.00  0.70  0.70  0.70   0.4  0.00  0.00  0.00  0.00
   15 160    83    83  12.3  -6.0 41.23  8.19  0.63  0.72  22.5  1.16 0.143  1.30  1883    21   316  1546   365  1167     0  0.00     0     0   923    13 87.45 6.456  60.2     0     0   481   318  0.99  0.79 101.8  96.4  7.36  0.00  0.00  0.00  0.68  0.68  0.68   0.8  0.00  0.00  0.00  0.00
   15 161    84    84  14.7  -6.0 41.84  8.19  0.62  0.79  43.5  1.13 0.144  1.27  1923    21   322  1580   356  1204     0  0.00     0     0   950    20 87.45 6.689  60.9     0     0   481   317  1.01  0.79 100.3  50.8  3.92  0.00  0.00  0.00  0.64  0.64  0.64   0.8  0.00  0.00  0.00  0.00
   15 162    85    85  18.3  -6.0 42.60  8.19  0.61  0.86  50.8  1.10 0.145  1.24  1969    21   327  1621   347  1248     0  0.00     0     0   981    26 87.45 6.983  61.5     0     0   481   316  1.02  0.80  98.4  43.2  3.43  0.00  0.00  0.00  0.61  0.61  0.61   0.9  0.00  0.00  0.00  0.00
   15 163    86    86  20.9  -6.0 43.47  8.19  0.60  0.95  76.7  1.09 0.150  1.24  2040    21   336  1682   344  1310     0  0.00     0     0  1020    28 87.45 7.325  61.7     0     0   481   315  1.04  0.81  96.2  28.8  2.33  0.00  0.00  0.00  0.57  0.57  0.57   0.4  0.00  0.06  0.00  0.00
   15 164    87    87  20.1  -6.0 44.31  8.19  0.60  1.00  66.3  1.08 0.154  1.23  2101    21   343  1736   342  1364     0  0.00     0     0  1055    31 87.45 7.663  61.8     0     0   481   314  1.06  0.81 102.5  38.7  2.99  0.00  0.00  0.00  0.55  0.55  0.55   0.6  0.00  0.01  0.00  0.00
   15 165    88    88  20.1  -6.0 45.15  8.19  0.60  1.07  66.3  1.07 0.159  1.22  2162    21   350  1791   340  1418     0  0.00     0     0  1090    33 87.45 8.008  62.0     0     0   481   314  1.07  0.82 120.1  47.9  3.18  0.00  0.00  0.00  0.52  0.52  0.52   0.4  0.00  0.01  0.00  0.00
   15 166    89    89  15.1  -6.0 45.78  8.19  0.59  1.12  38.7  1.06 0.161  1.22  2198    21   354  1823   338  1450     0  0.00     0     0  1110    34 87.45 8.272  62.1     0     0   481   313  1.08  0.83 139.3  99.9  8.30  0.00  0.00  0.00  0.49  0.49  0.49   0.8  0.00  0.00  0.00  0.00
   15 167    90    90  15.2  -6.0 46.41  8.19  0.59  1.19  64.9  1.05 0.166  1.22  2258    21   360  1877   337  1504     0  0.00     0     0  1144    36 87.45 8.541  62.2     0     0   481   312  1.10  0.83 137.4  69.2  5.24  0.00  0.00  0.00  0.46  0.46  0.46   0.9  0.00  0.00  0.00  0.00
   15 168    91    91  14.8  -6.0 47.03  8.19  0.59  1.26  76.4  1.04 0.171  1.21  2329    21   367  1941   335  1568     0  0.00     0     0  1184    38 87.45 8.807  62.2     0     0   481   311  1.11  0.84 135.0  62.0  4.86  0.00  0.00  0.00  0.43  0.43  0.43   0.7  0.00  0.00  0.00  0.00
   15 169    92    92  13.2  -6.0 47.58  8.19  0.59  1.32  73.1  1.04 0.177  1.21  2398    21   374  2003   334  1630     0  0.00     0     0  1223    39 87.45 9.050  62.3     0     0   481   311  1.12  0.84 144.8  75.9  5.66  0.00  0.00  0.00  0.40  0.40  0.40   0.8  0.00  0.00  0.00  0.00
   15 170    93    93  13.2  -6.0 48.13  8.19  0.58  1.38  58.3  1.03 0.181  1.21  2452    21   379  2052   332  1680     0  0.00     0     0  1254    40 87.45 9.297  62.3     0     0   481   310  1.13  0.85 143.5  98.7  7.56  0.00  0.00  0.00  0.37  0.37  0.37   0.9  0.00  0.00  0.00  0.00
   15 171    94    94  12.2  -6.0 48.64  8.19  0.58  1.45  67.6  1.02 0.186  1.21  2516    21   384  2110   331  1723     0  0.00    15    15  1290    42 87.45 9.529  62.4     0     0   481   309  1.14  0.86 142.6  90.9  7.09  0.00  0.00  0.00  0.34  0.34  0.34   1.2  0.00  0.00  0.00  0.00
   15 172    95    95  13.6  -6.0 49.20  8.19  0.58  1.51  84.0  1.02 0.193  1.21  2595    21   391  2182   329  1726     0  0.00    84    34  1335    43 87.45 9.789  62.4     0     0   481   309  1.15  0.86 141.1  73.0  5.85  0.00  0.00  0.00  0.31  0.31  0.31   1.4  0.00  0.00  0.00  0.00
   15 173    96    96  16.2  -6.0 49.88  8.19  0.58  1.58  89.6  1.01 0.200  1.21  2679    21   398  2260   327  1725     0  0.00   163    54  1383    45 87.45 10.11  62.4     0     0   480   308  1.17  0.87 148.9  71.1  5.49  0.00  0.00  0.00  0.28  0.28  0.28   1.0  0.00  0.00  0.00  0.00
   15 174    97    97  13.1  -6.0 51.70  8.19  0.57  1.65  83.6  1.00 0.207  1.21  2758    21   404  2333   326  1721     0  0.00   241    73  1429    46 87.45 10.37  62.5     0     0   480   307  1.18  0.87 149.8  85.4  6.67  0.00  0.00  0.00  0.25  0.25  0.25   0.8  0.00  0.00  0.00  0.00
   15 175    98    98  13.9  -6.0 54.02  8.19  0.57  1.69 111.5  1.00 0.215  1.21  2864    21   411  2432   324  1744     0  0.00   316    99  1489    47 87.45 10.65  62.4     0     0   480   307  1.19  0.88 146.8  62.6  5.06  0.00  0.00  0.00  0.23  0.23  0.23   1.1  0.00  0.00  0.00  0.00
   15 176    99    99  13.8  -6.0 56.33  8.19  0.57  1.73 127.7  0.99 0.225  1.21  2987    21   419  2546   323  1766     0  0.00   409   128  1559    49 87.45 10.93  62.4     0     0   480   306  1.20  0.90 143.4  54.6  4.61  0.00  0.00  0.00  0.21  0.21  0.21   1.6  0.00  0.00  0.00  0.00
   15 177   100   100  16.5  -6.0 59.08  8.19  0.57  1.77 134.8  0.98 0.236  1.22  3116    21   426  2669   321  1786     0  0.00   511   160  1634    50 87.45 11.28  62.4     0     0   480   306  1.21  0.91 141.0  49.2  4.30  0.00  0.00  0.00  0.20  0.20  0.20   0.9  0.00  0.00  0.00  0.00
   15 178   101   101  18.4  -6.0 65.34  8.19  0.56  1.82 103.3  0.97 0.244  1.22  3216    21   430  2764   320  1782     0  0.00   611   185  1693    52 87.45 11.67  62.4     0     0   480   305  1.23  0.92 140.5  64.0  5.71  0.00  0.00  0.00  0.18  0.18  0.18   1.1  0.00  0.00  0.00  0.00
   15 179   102   102  17.9  -6.0 70.43  8.19  0.56  1.86 108.9  0.97 0.252  1.22  3322    21   434  2866   318  1805     0  0.00   690   212  1755    53 87.45 12.05  62.4     0     0   480   304  1.24  0.94 139.0  62.1  5.65  0.00  0.00  0.00  0.16  0.16  0.16   1.6  0.00  0.00  0.00  0.00
   15 180   103   103  18.9  -6.0 71.64  8.19  0.56  1.90 126.2  0.96 0.263  1.22  3445    21   437  2987   316  1839     2  0.00   774   245  1827    55 87.45 12.46  62.4  6189 .0000   480   303  1.26  0.95 137.4  52.8  4.90  0.00  0.00  0.00  0.14  0.14  0.14   0.9  0.00  0.00  0.00  0.00
   15 181   104   104  20.6  -6.0 72.96  8.19  0.55  1.94 147.6  0.95 0.261  1.21  3590    21   439  3130   314  1847    13  0.00   899   256  1961    57 87.45 12.91  64.1  6189 .0002   480   303  1.27  0.97 135.5  43.7  3.86  0.00  0.00  0.00  0.12  0.12  0.12   1.8  0.00  0.04  0.00  0.00
   15 182   105   105  21.0  -6.0 74.31  8.19  0.55  1.98 141.8  0.94 0.259  1.20  3731    21   440  3269   312  1925    32  0.01   940   275  2083    59 87.45 13.37  65.5  6189 .0005   480   302  1.29  0.98 134.0  45.8  3.88  0.00  0.00  0.00  0.10  0.10  0.10   1.6  0.00  0.07  0.00  0.00
   15 183   106   106  22.2  -6.0 75.73  8.19  0.55  2.02 142.8  0.93 0.257  1.19  3872    21   442  3409   310  1997    62  0.02   979   305  2195    60 87.45 13.86  66.8  6189 .0010   480   301  1.31  0.98 132.5  44.9  3.82  0.00  0.00  0.00  0.08  0.08  0.08   1.0  0.00  0.15  0.00  0.00
   15 184   107   107  23.0  -6.0 77.21  8.19  0.54  2.07 158.4  0.92 0.255  1.18  4028    21   443  3564   308  2072   103  0.03  1019   346  2311    63 87.45 14.37  68.0  6189 .0017   480   300  1.33  0.98 130.9  40.1  3.45  0.00  0.00  0.00  0.06  0.06  0.06   0.6  0.00  0.20  0.00  0.00
   15 185   108   108  24.6  -6.0 78.78  8.19  0.54  2.10 155.0  0.91 0.253  1.17  4182    21   444  3716   306  2135   158  0.04  1053   401  2411    65 87.45 14.92  69.0  6189 .0025   480   299  1.35  0.98 129.7  40.3  3.50  0.00  0.00  0.00  0.05  0.05  0.05   0.4  0.00  0.30  0.00  0.00
   15 186   109   109  25.5  -6.0 80.09  8.19  0.54  1.98 140.8  0.90 0.251  1.15  4321    21   445  3854   303  2179   227  0.06  1078   470  2481    67 87.45 15.48  69.7  6189 .0037   480   298  1.37  0.98 128.8  40.9  3.16  0.00  0.00  0.00  0.05  0.05  0.05   0.2  0.05  0.37  0.00  0.00
   15 187   110   110  23.2  -6.0 80.42  8.19  0.53  1.95 115.2  0.90 0.250  1.15  4434    21   446  3967   303  2205   300  0.08  1091   543  2522    67 87.45 16.00  70.1  6189 .0049   480   297  1.39  0.98 128.4  51.5  3.75  0.00  0.00  0.00  0.12  0.12  0.12   0.3  0.00  0.21  0.00  0.00
   15 188   111   111  25.1  -6.0 80.78  8.19  0.53  1.77 130.2  0.90 0.248  1.14  4563    21   447  4094   303  2236   379  0.09  1108   622  2571    68 87.45 16.56  70.5  6189 .0061   480   296  1.41  0.98 131.3  40.5  2.82  0.00  0.00  0.00  0.19  0.19  0.19   0.2  0.01  0.34  0.00  0.00
   15 189   112   112  17.4  -6.0 81.03  8.19  0.53  1.56  73.2  0.89 0.247  1.14  4635    21   448  4166   303  2247   434  0.10  1113   677  2588    69 87.45 16.95  70.7  6189 .0070   480   295  1.42  0.98 136.9  77.6  5.60  0.00  0.00  0.00  0.29  0.29  0.29   0.4  0.00  0.00  0.00  0.00
   15 190   113   113  13.9  -6.0 81.23  8.19  0.53  1.45  81.5  0.89 0.246  1.14  4716    21   449  4246   303  2274   472  0.11  1128   715  2630    69 87.45 17.26  71.0  6189 .0076   480   294  1.44  0.98 134.6  67.8  5.79  0.00  0.00  0.00  0.34  0.34  0.34   0.6  0.00  0.00  0.00  0.00
   15 191   114   114  14.9  -6.0 81.44  8.19  0.53  1.46  98.5  0.89 0.244  1.13  4813    21   449  4343   303  2308   516  0.12  1146   759  2684    69 87.45 17.59  71.4  6189 .0083   480   294  1.45  0.98 132.5  53.9  4.45  0.00  0.00  0.00  0.34  0.34  0.34   0.5  0.00  0.00  0.00  0.00
   15 192   115   115  18.3  -6.0 81.70  8.19  0.53  1.42 109.7  0.89 0.243  1.13  4922    21   450  4450   303  2340   574  0.13  1163   817  2734    70 87.45 18.00  71.8  6189 .0093   480   293  1.46  0.98 130.3  42.6  3.15  0.00  0.00  0.00  0.36  0.36  0.36   0.2  0.00  0.00  0.00  0.00
   15 193   116   116  20.5  -6.0 82.00  8.19  0.53  1.21  79.4  0.89 0.242  1.13  5000    21   451  4528   303  2349   638  0.14  1168   881  2748    70 87.45 18.47  71.9  6189 .0103   480   292  1.48  0.98 128.8  48.4  3.36  0.00  0.00  0.00  0.45  0.45  0.45   0.2  0.00  0.03  0.00  0.00
   15 194   117   117  18.4  -6.0 82.26  8.19  0.53  0.99  38.7  0.88 0.241  1.12  5038    21   451  4566   303  2335   696  0.15  1160   939  2728    71 87.45 18.88  71.8  6189 .0112   480   291  1.49  0.98 129.2  86.7  5.50  0.00  0.00  0.00  0.55  0.55  0.55   0.2  0.00  0.00  0.00  0.00
   15 195   118   118  20.6  -6.0 82.55  8.19  0.52  0.81  44.4  0.86 0.239  1.10  5082    21   451  4609   297  2321   761  0.17  1155  1004  2711    75 87.45 19.34  71.9  6189 .0123   480   291  1.51  0.98 128.3  57.7  3.78  0.00  0.00  0.00  0.64  0.64  0.64   0.2  0.00  0.04  0.00  0.00
   15 196   119   119  21.7  -6.0 82.86  8.19  0.51  0.66  37.2  0.84 0.238  1.08  5118    21   451  4646   291  2301   830  0.18  1145  1073  2683    79 87.45 19.83  71.8  6189 .0134   480   290  1.53  0.98 127.4  54.7  2.86  0.00  0.00  0.00  0.70  0.70  0.70   0.2  0.00  0.11  0.00  0.00
   15 197   120   120  22.4  -6.0 83.18  8.19  0.50  0.54  36.9  0.82 0.236  1.06  5154    21   451  4682   285  2279   900  0.19  1135  1143  2653    84 87.45 20.34  71.7  6189 .0145   480   289  1.55  0.98 126.1  43.6  2.00  0.00  0.00  0.00  0.76  0.76  0.76   0.2  0.00  0.16  0.00  0.00
   15 198   121   121  24.6  -6.0 83.53  8.19  0.49  0.44  30.6  0.80 0.235  1.04  5184    21   451  4712   279  2248   978  0.21  1120  1221  2610    88 87.45 20.89  71.6  6189 .0158   480   288  1.57  0.98 124.9  40.9  1.70  0.00  0.00  0.00  0.80  0.80  0.80   0.1  0.00  0.31  0.00  0.00
   15 199   122   122  22.0  -6.0 83.85  8.19  0.49  0.36  21.5  0.78 0.234  1.02  5205    21   450  4733   273  2216  1047  0.22  1105  1290  2566    92 87.45 21.39  71.4  6189 .0169   480   287  1.59  0.98 124.5  50.2  1.77  0.00  0.00  0.00  0.84  0.84  0.84   0.1  0.00  0.13  0.00  0.00
   15 200   123   123  22.4  -6.0 84.17  8.19  0.48  0.29  16.3  0.77 0.232  1.00  5220    21   450  4749   267  2181  1117  0.24  1088  1360  2515    95 87.45 21.89  71.1  6189 .0181   480   286  1.60  0.98 124.3  53.8  1.67  0.00  0.00  0.00  0.87  0.87  0.87   0.1  0.00  0.16  0.00  0.00
   15 201   124   124  23.3  -6.0 84.50  8.19  0.47  0.24  11.8  0.75 0.231  0.98  5232    21   450  4761   262  2141  1191  0.25  1068  1434  2457    99 87.45 22.42  70.8  6189 .0192   480   286  1.62  0.98 124.1  60.0  1.70  0.00  0.00  0.00  0.89  0.89  0.89   0.1  0.00  0.22  0.00  0.00
   15 202   125   125  24.2  -6.0 84.85  8.19  0.46  0.20  11.6  0.73 0.230  0.96  5243    21   449  4772   256  2098  1267  0.27  1047  1510  2396   103 87.45 22.96  70.4  6189 .0205   480   285  1.64  0.98 123.8  48.9  1.29  0.00  0.00  0.01  0.91  0.91  0.91   0.1  0.00  0.28  0.00  0.00
   15 203   126   126  25.0  -6.0 85.20  8.19  0.45  0.16  10.3  0.71 0.228  0.94  5252    21   449  4782   251  2054  1346  0.28  1025  1589  2331   107 87.45 23.52  70.0  6189 .0217   480   284  1.66  0.98 123.3  44.4  1.10  0.00  0.00  0.15  0.93  0.93  0.93   0.1  0.00  0.33  0.00  0.00
   15 204   127   127  21.4  -6.0 85.51  8.19  0.45  0.13   4.7  0.69 0.227  0.92  5256    21   448  4787   246  2013  1413  0.30  1004  1656  2271   110 87.45 24.00  69.6  6189 .0228   480   283  1.68  0.98 124.1  87.2  2.03  0.00  0.00  0.00  0.94  0.94  0.94   0.1  0.00  0.09  0.00  0.00
   15 205   128   128  22.0  -6.0 85.82  8.19  0.44  0.11   5.8  0.68 0.226  0.90  5262    21   448  4792   240  1972  1483  0.31   984  1726  2211   114 87.45 24.49  69.2  6189 .0240   480   282  1.70  0.98 123.6  56.5  1.30  0.00  0.00  0.00  0.95  0.95  0.95   0.1  0.00  0.13  0.00  0.00
   15 206   129   129  18.8  -6.0 86.09  8.19  0.43  0.09   4.3  0.66 0.225  0.89  5266    21   448  4797   235  1936  1542  0.32   966  1785  2160   117 87.45 24.91  68.8  6189 .0249   480   281  1.72  0.98 123.5  66.2  1.28  0.00  0.00  0.02  0.96  0.96  0.96   0.1  0.00  0.00  0.00  0.00
   15 207   130   130  15.6  -6.0 86.31  8.19  0.42  0.07   3.8  0.65 0.224  0.87  5269    21   447  4800   231  1908  1589  0.33   952  1832  2119   120 87.45 25.26  68.6  6189 .0257   480   280  1.73  0.98 123.3  65.5  1.12  0.00  0.00  0.14  0.97  0.97  0.97   0.1  0.00  0.00  0.00  0.00
   15 208   131   131  18.3  -6.0 86.58  8.19  0.42  0.06   2.6  0.63 0.223  0.85  5271    21   447  4803   226  1872  1647  0.34   935  1890  2067   124 87.45 25.67  68.2  6189 .0266   480   280  1.74  0.98 126.3  76.5  1.17  0.00  0.00  0.10  0.97  0.97  0.97   0.1  0.00  0.00  0.00  0.00
   15 209   132   132  17.5  -6.0 86.82  8.19  0.41  0.05   2.1  0.62 0.223  0.84  5273    21   447  4805   221  1837  1702  0.35   918  1945  2017   127 87.45 26.06  67.8  6189 .0275   480   279  1.76  0.98 126.9  80.4  2.24  0.00  0.00  0.00  0.98  0.98  0.98   0.1  0.00  0.00  0.00  0.00
   15 210   133   133  15.0  -6.0 87.04  8.19  0.40  0.04   1.7  0.60 0.222  0.82  5274    21   446  4807   216  1810  1747  0.36   904  1990  1977   130 87.45 26.40  67.5  6189 .0282   480   279  1.77  0.98 127.1  85.5  2.29  0.00  0.00  0.00  0.98  0.98  0.98   0.2  0.00  0.00  0.00  0.00
   15 211   134   134  14.6  -6.0 87.25  8.19  0.38  0.03   1.5  0.57 0.221  0.79  5275    21   446  4808   204  1784  1789  0.37   894  2032  1944   137 87.45 26.72  67.4  6189 .0289   480   278  1.78  0.98 126.2  76.1  1.95  0.00  0.00  0.00  0.99  0.99  0.99   0.1  0.00  0.00  0.00  0.00
   15 212   135   135  16.4  -6.0 87.48  8.19  0.37  0.02   1.1  0.54 0.220  0.76  5276    21   446  4809   193  1752  1841  0.38   880  2084  1900   144 87.45 27.09  67.2  6189 .0297   480   278  1.80  0.98 125.7  77.3  0.92  0.15  0.08  0.29  0.99  0.99  0.99   0.1  0.00  0.00  0.00  0.00
   15 213   136   136  17.0  -6.0 87.72  8.19  0.35  0.02   0.7  0.50 0.220  0.72  5276    21   445  4810   181  1719  1894  0.39   865  2137  1854   151 87.45 27.47  67.1  6189 .0306   480   277  1.81  0.98 125.7  99.9  1.11  0.00  0.00  0.14  0.99  0.99  0.99   0.1  0.00  0.00  0.00  0.00
   15 214   137   137  19.0  -6.0 88.00  8.19  0.33  0.01   0.5  0.47 0.219  0.69  5276    21   445  4810   169  1681  1954  0.41   848  2197  1802   158 87.45 27.89  66.8  6189 .0316   480   276  1.82  0.98 126.1  89.0  0.77  0.45  0.23  0.40  0.99  0.99  0.99   0.1  0.00  0.00  0.00  0.00
   15 215   138   138  19.8  -6.0 88.28  8.19  0.31  0.01   0.4  0.43 0.218  0.65  5276    21   444  4811   156  1642  2016  0.42   831  2259  1748   166 87.45 28.33  66.5  6189 .0326   480   276  1.84  0.98 126.9  78.7  0.60  0.79  0.40  0.54  0.99  0.99  0.99   0.1  0.00  0.00  0.00  0.00
   15 216   139   139  21.9  -6.0 88.59  8.19  0.28  0.01   0.3  0.39 0.216  0.60  5276    21   444  4811   140  1591  2085  0.43   815  2328  1689   179 87.45 28.82  66.3  6189 .0337   480   275  1.86  0.98 128.1  76.3  0.53  0.94  0.47  0.59  0.99  0.99  0.99   0.0  0.00  0.12  0.00  0.00
   15 217   140   140  21.8  -6.0 88.90  8.19  0.25  0.01   0.2  0.34 0.214  0.55  5276    21   443  4811   124  1541  2154  0.45   800  2397  1630   193 87.45 29.30  66.1  6189 .0348   480   274  1.88  0.98 129.2  93.9  0.59  0.81  0.41  0.54  1.00  1.00  1.00   0.0  0.00  0.12  0.00  0.00
   15 218   141   141  23.4  -6.0 89.24  8.19  0.22  0.00   0.1  0.29 0.212  0.51  5276    21   443  4811   108  1487  2227  0.46   783  2470  1566   207 87.45 29.82  65.9  6189 .0360   480   273  1.90  0.98 130.6  91.7  0.53  0.93  0.47  0.59  1.00  1.00  1.00   0.0  0.00  0.23  0.00  0.00
   15 219   142   142  24.8  -6.0 89.59  8.19  0.19  0.00   0.1  0.25 0.210  0.46  5275    21   442  4811    91  1430  2306  0.48   764  2549  1497   221 87.45 30.37  65.5  6189 .0373   480   273  1.92  0.98 132.2  99.9  0.54  0.91  0.46  0.58  1.00  1.00  1.00   0.0  0.00  0.32  0.00  0.00
   15 220   143   143  25.2  -6.0 89.95  8.19  0.16  0.00   0.0  0.21 0.208  0.42  5275    21   442  4811    77  1373  2385  0.50   744  2628  1427   234 87.45 30.92  65.0  6189 .0385   480   272  1.94  0.98 134.0  99.9  0.62  0.76  0.38  0.52  1.00  1.00  1.00   0.0  0.02  0.34  0.00  0.00
   15 221   144   144  24.7  -6.0 91.05  8.19  0.13  0.00   0.0  0.17 0.206  0.37  5274    21   441  4811    62  1348  2414  0.50   741  2657  1406   247 87.45 31.47  65.4  6189 .0390   480   271  1.96  0.98 135.5  99.9  0.76  0.49  0.24  0.42  1.00  1.00  1.00   0.0  0.00  0.31  0.00  0.00
