$GROWTH FACTOR OUTPUT FILE

*DSSAT Cropping System Model Ver. 4.8.5.000 -release  OCT 24, 2025 14:14:59

*RUN   1        : 1                         CSCER048 TUDU1501    1
 MODEL          : CSCER048 - Wheat
 EXPERIMENT     : TUDU1501 WH
 DATA PATH      :
 TREATMENT  1   : 1                         CSCER048
  
!........DATES.......  TEMP STAGE  ...PHENOLOGY....  .......PHOTOSYNTHESIS.......  .....GROWTH.....  ..TILLERS. WATER STRESS DETERMINANTS N STRESS DETERMINANTS       
@YEAR DOY   DAS   DAP TMEAN  GSTD    DU VRNFD DYLFD TFGEM  WFGE  TFPD  WFPD  NFPD CO2FD RSFPD  TFGD  WFGD  NFGD  WFTD  NFTD WAVRD WUPRD  SWXD  EOPD  SNXD LN%RD SN%RD RN%RD      
   15  77     0     0   7.7   0.0   7.6  1.00  0.00  0.73  0.00  0.00  0.00  0.00  0.04  0.00  0.24  0.00  0.00  0.00  0.00 99.90  1.00   3.0   0.0  31.3  0.00  0.00  0.00
   15  78     1     1   6.3   2.6   0.0  1.00  0.00  0.79  0.00  0.00  0.00  0.00  0.04  0.00  0.37  0.00  0.00  0.00  0.00 99.90  1.00   2.5   0.0  31.3  0.00  0.00  0.00
   15  79     2     2   5.4   4.8   0.0  1.00  0.00  0.83  0.00  0.00  0.00  0.00  0.04  0.00  0.46  0.00  0.00  0.00  0.00 99.90  1.00   2.1   0.0  31.3  0.00  0.00  0.00
   15  80     3     3   5.3   6.0   0.0  1.00  0.00  0.83  0.00  0.00  0.00  0.00  0.04  0.00  0.47  0.00  0.00  0.00  0.00 99.90  1.00   2.9   0.0  31.3  0.00  0.00  0.00
   15  81     4     4   4.1   6.8   0.0  0.95  0.00  0.87  0.00  0.00  0.00  0.00  0.04  0.00  0.59  0.00  0.00  0.00  0.00 99.90  1.00   3.5   0.0  31.4  0.00  0.00  1.00
   15  82     5     5   2.8   7.2   0.1  0.90  0.00  0.93  0.00  0.00  0.00  0.00  0.04  0.00  0.73  0.00  0.00  0.00  0.00 99.90  1.00   3.3   0.0  31.4  0.00  0.00  1.00
   15  83     6     6   6.6   8.6   0.7  0.85  0.00  0.78  0.00  0.00  0.00  0.00  0.04  0.00  0.34  0.00  0.00  0.00  0.00 99.90  1.00   3.5   0.0  31.4  0.00  0.00  1.00
   15  84     7     7   8.9  10.0   1.3  0.81  0.00  0.68  0.00  0.00  0.00  0.00  0.04  0.00  0.11  0.00  0.00  0.00  0.00 99.90  1.00   4.3   0.0  31.4  0.00  0.00  1.00
   15  85     8     8   6.3  10.1   0.7  0.76  0.41  0.79  0.00  0.00  0.00  0.00  0.04  0.00  0.37  0.00  0.00  0.00  0.00 99.90  1.00   5.5   0.0  31.4  1.00  0.00  1.00
   15  86     9     9   6.5  10.2   0.9  0.71  0.40  0.78  0.00  0.00  0.00  0.00  0.04  0.00  0.35  0.00  0.00  0.00  0.00 99.90  4.30   7.0   0.0  31.4  1.00  0.01  1.00
   15  87    10    10   6.4  10.3   1.1  0.66  0.40  0.78  0.00  0.00  0.00  0.00  0.04  0.00  0.36  0.00  0.00  0.00  0.00 99.90  1.73   7.4   0.0  31.4  1.00  0.01  1.00
   15  88    11    11   9.5  10.5   2.0  0.63  0.39  0.66  0.00  0.00  0.00  0.00  0.04  0.00  0.05  0.00  0.00  0.00  0.00 99.90  1.71   9.1   0.1  31.4  1.00  0.01  1.00
   15  89    12    12   6.7  10.6   1.5  0.58  0.38  0.77  0.00  0.00  0.00  0.00  0.04  0.00  0.33  0.00  0.00  0.00  0.00 99.90  1.33  15.7   0.1  31.4  1.00  0.01  1.00
   15  90    13    13   7.8  10.7   2.0  0.53  0.37  0.73  0.00  0.00  0.13  0.00  0.04  0.00  0.23  0.33  0.00  0.26  0.00 99.90  0.87  18.1   0.2  31.4  0.91  0.02  0.99
   15  91    14    14   3.3  10.8   1.0  0.48  0.37  0.91  0.00  0.33  0.00  0.10  0.04  0.00  0.67  0.00  0.10  0.00  0.10 99.90  1.58  19.8   0.1  31.4  0.90  0.07  0.96
   15  92    15    15   3.1  10.8   1.0  0.43  0.36  0.92  0.00  0.38  0.00  0.11  0.04  0.00  0.69  0.00  0.11  0.00  0.11 99.90  1.81  21.8   0.1  31.3  0.90  0.13  0.94
   15  93    16    16   4.2  10.9   1.5  0.38  0.35  0.87  0.00  0.17  0.00  0.12  0.04  0.00  0.58  0.00  0.12  0.00  0.12 99.90  1.34  18.9   0.2  31.2  0.87  0.16  0.91
   15  94    17    17   3.6  11.0   1.5  0.33  0.35  0.90  0.00  0.28  0.00  0.15  0.04  0.00  0.64  0.00  0.15  0.00  0.15 99.90  2.86  21.8   0.1  31.1  0.87  0.21  0.89
   15  95    18    18   2.5  11.0   1.1  0.28  0.34  0.94  0.00  0.51  0.00  0.15  0.04  0.00  0.75  0.00  0.15  0.00  0.15 99.90  1.86  19.4   0.2  31.0  0.88  0.28  0.91
   15  96    19    19   1.9  11.0   0.9  0.23  0.33  0.96  0.00  0.62  0.00  0.14  0.04  0.00  0.81  0.00  0.14  0.00  0.14 99.90  2.06  18.7   0.2  30.9  0.89  0.33  0.92
   15  97    20    20   2.9  11.1   1.5  0.18  0.32  0.92  0.00  0.42  0.00  0.13  0.04  0.00  0.71  0.00  0.13  0.00  0.13 92.69  1.78  18.2   0.2  30.9  0.89  0.39  0.92
   15  98    21    21   6.6  11.2   3.7  0.13  0.32  0.78  0.00  0.00  0.00  0.12  0.04  0.00  0.34  0.00  0.12  0.00  0.12 74.05  1.58  18.1   0.2  54.2  0.91  0.54  0.94
   15  99    22    22  10.2  11.4   6.1  0.10  0.31  0.63  0.00  0.00  0.00  0.10  0.04  0.00  0.00  0.00  0.10  0.00  0.10 57.44  1.42  18.5   0.3  60.2  0.83  0.54  0.91
   15 100    23    23  11.4  11.5   7.1  0.08  0.30  0.59  0.00  0.00  0.00  0.19  0.04  0.00  0.00  0.09  0.19  0.00  0.19 41.13  1.18  19.0   0.5  63.4  0.77  0.52  0.88
   15 101    24    24  11.7  11.7   7.6  0.06  0.30  0.57  0.00  0.00  0.00  0.27  0.04  0.00  0.00  0.00  0.27  0.00  0.27 44.34  1.48  19.7   0.4  65.3  0.71  0.49  0.86
   15 102    25    25  12.3  11.9   8.2  0.04  0.29  0.55  0.00  0.00  0.32  0.32  0.04  0.00  0.00  0.48  0.32  0.65  0.32 39.08  0.68  20.6   0.5  66.2  0.68  0.47  0.85
   15 103    26    26  11.9  12.1   8.1  0.02  0.28  0.57  0.00  0.00  0.46  0.36  0.04  0.00  0.00  0.59  0.36  0.93  0.36 37.80  0.54  21.6   0.6  66.6  0.67  0.45  0.85
   15 104    27    27  12.1  12.2   8.5  0.00  0.28  0.56  0.00  0.00  0.50  0.38  0.04  0.00  0.00  0.61  0.38  1.00  0.38 37.89  0.50  22.6   0.6  66.7  0.66  0.46  0.84
   15 105    28    28  14.4  12.3  10.4  0.00  0.27  0.46  0.00  0.00  0.59  0.38  0.04  0.00  0.00  0.69  0.38  1.00  0.38 32.12  0.41  24.1   0.8  66.6  0.66  0.45  0.84
   15 106    29    29  15.7  12.4  11.5  0.00  0.27  0.41  0.00  0.00  0.51  0.39  0.04  0.00  0.00  0.62  0.39  1.00  0.39 40.58  0.49  26.1   0.6  66.6  0.64  0.44  0.83
   15 107    30    30  10.9  12.5   8.0  0.00  0.26  0.61  0.00  0.00  0.41  0.41  0.04  0.00  0.00  0.55  0.41  0.83  0.41 84.79  0.59  47.7   0.6  66.6  0.66  0.49  0.83
   15 108    31    31   5.5  12.6   4.1  0.00  0.25  0.82  0.00  0.00  0.00  0.39  0.04  0.00  0.45  0.00  0.39  0.00  0.39 89.76  2.43  42.3   0.5  66.4  0.68  0.54  0.85
   15 109    32    32   6.4  12.6   4.8  0.00  0.25  0.78  0.00  0.00  0.00  0.36  0.04  0.00  0.36  0.00  0.36  0.00  0.36 67.85  2.14  39.6   0.6  66.3  0.70  0.59  0.87
   15 110    33    33   8.1  12.7   6.2  0.00  0.24  0.71  0.00  0.00  0.00  0.34  0.04  0.00  0.19  0.00  0.34  0.00  0.34 53.88  1.94  38.4   0.7  66.0  0.73  0.65  0.89
   15 111    34    34  10.7  12.8   8.1  0.00  0.24  0.61  0.00  0.00  0.00  0.31  0.04  0.00  0.00  0.00  0.31  0.00  0.31 46.53  1.88  38.0   0.8  65.6  0.76  0.73  0.91
   15 112    35    35  11.2  12.9   8.6  0.00  0.23  0.59  0.00  0.00  0.00  0.27  0.04  0.00  0.00  0.00  0.27  0.00  0.27 44.89  2.03  37.9   0.8  65.2  0.79  0.79  0.92
   15 113    36    36   6.1  12.9   4.7  0.00  0.22  0.80  0.00  0.00  0.00  0.24  0.04  0.00  0.39  0.00  0.24  0.00  0.24 57.79  1.83  37.3   0.6  64.6  0.80  0.81  0.93
   15 114    37    37   8.8  13.0   6.8  0.00  0.22  0.69  0.00  0.00  0.04  0.23  0.04  0.00  0.12  0.26  0.23  0.08  0.23 41.47  0.96  37.0   0.9  64.4  0.82  0.85  0.94
   15 115    38    38  11.4  13.1   9.0  0.00  0.21  0.58  0.00  0.00  0.06  0.21  0.04  0.00  0.00  0.27  0.21  0.11  0.21 41.88  0.94  38.5   0.9  64.0  0.83  0.86  0.94
   15 116    39    39  15.1  13.2  11.9  0.00  0.21  0.44  0.00  0.00  0.00  0.19  0.04  0.00  0.00  0.00  0.19  0.00  0.19 50.37  1.48  40.5   0.8  63.6  0.85  0.89  0.94
   15 117    40    40  14.5  13.3  11.6  0.00  0.20  0.46  0.00  0.00  0.00  0.17  0.04  0.00  0.00  0.00  0.17  0.00  0.17 41.45  1.96  46.1   1.1  62.9  0.87  0.93  0.95
   15 118    41    41   8.3  13.4   6.7  0.00  0.20  0.71  0.00  0.00  0.00  0.15  0.04  0.00  0.17  0.00  0.15  0.00  0.15 75.63  4.21  51.9   0.7  62.2  0.88  0.95  0.96
   15 119    42    42   7.0  13.5   5.6  0.00  0.19  0.76  0.00  0.00  0.00  0.13  0.04  0.00  0.30  0.00  0.13  0.00  0.13 56.69  3.45  50.4   0.9  61.9  0.89  0.96  0.96
   15 120    43    43  10.4  13.5   8.4  0.00  0.19  0.63  0.00  0.00  0.00  0.12  0.04  0.00  0.00  0.00  0.12  0.00  0.12 56.93  3.72  50.5   0.9  61.6  0.91  0.98  0.97
   15 121    44    44   8.6  13.6   7.1  0.00  0.18  0.69  0.00  0.00  0.00  0.11  0.04  0.00  0.14  0.00  0.11  0.00  0.11 99.90  9.41  75.3   0.4  61.1  0.92  1.00  0.97
   15 122    45    45  10.5  13.7   8.6  0.00  0.18  0.62  0.00  0.00  0.00  0.09  0.04  0.00  0.00  0.00  0.09  0.00  0.09 96.54  4.82  72.5   0.8  60.8  0.93  1.00  0.97
   15 123    46    46  13.2  13.8  11.0  0.00  0.17  0.51  0.00  0.00  0.00  0.08  0.04  0.00  0.00  0.00  0.08  0.00  0.08 95.91  4.61  79.2   0.8  60.2  0.94  1.00  0.98
   15 124    47    47  17.5  14.0  14.5  0.00  0.17  0.34  0.00  0.00  0.00  0.07  0.04  0.00  0.00  0.00  0.07  0.00  0.07 70.25  4.04  69.6   1.0  59.1  0.95  1.00  0.98
   15 125    48    48  19.4  14.1  16.2  0.00  0.16  0.26  0.00  0.00  0.00  0.05  0.04  0.00  0.00  0.00  0.05  0.00  0.05 45.37  2.71  70.4   1.6  58.4  0.97  1.00  0.99
   15 126    49    49  11.6  14.2   9.7  0.00  0.16  0.58  0.00  0.00  0.00  0.04  0.04  0.00  0.00  0.00  0.04  0.00  0.04 95.02  4.81  89.4   0.9  57.3  0.97  1.00  0.99
   15 127    50    50  13.0  14.3  11.0  0.00  0.15  0.52  0.00  0.00  0.00  0.03  0.04  0.00  0.00  0.00  0.03  0.00  0.03 59.17  3.66  76.8   1.3  56.1  0.98  1.00  0.99
   15 128    51    51  15.5  14.5  13.2  0.00  0.15  0.42  0.00  0.00  0.00  0.02  0.04  0.00  0.00  0.00  0.02  0.00  0.02 43.51  3.10  71.1   1.6  55.4  0.99  1.00  0.99
   15 129    52    52  14.2  14.6  12.1  0.00  0.15  0.47  0.00  0.00  0.00  0.01  0.04  0.00  0.00  0.00  0.01  0.00  0.01 65.56  4.76  74.7   1.1  54.8  1.00  1.00  0.99
   15 130    53    53  13.2  14.7  11.3  0.00  0.14  0.51  0.00  0.00  0.00  0.00  0.04  0.00  0.00  0.00  0.00  0.00  0.00 47.78  3.74  72.6   1.5  54.4  1.00  1.00  1.00
   15 131    54    54  13.7  14.8  11.8  0.00  0.14  0.49  0.00  0.00  0.00  0.00  0.04  0.00  0.00  0.00  0.00  0.00  0.00 37.63  3.22  70.6   1.9  54.0  1.00  1.00  1.00
   15 132    55    55  18.0  14.9  15.5  0.00  0.13  0.32  0.00  0.00  0.00  0.00  0.04  0.00  0.00  0.00  0.00  0.00  0.00 30.41  2.82  69.8   2.3  53.5  1.00  1.00  1.00
   15 133    56    56  17.8  15.1  15.4  0.00  0.13  0.33  0.00  0.00  0.00  0.00  0.04  0.00  0.00  0.00  0.00  0.00  0.00 48.36  4.43  75.8   1.6  52.8  1.00  1.00  1.00
   15 134    57    57  15.0  15.2  13.1  0.00  0.13  0.44  0.00  0.00  0.00  0.00  0.04  0.00  0.00  0.00  0.00  0.00  0.00 52.32  5.03  75.7   1.4  51.8  1.00  1.00  1.00
   15 135    58    58  11.4  15.3  10.0  0.00  0.12  0.58  0.00  0.00  0.00  0.00  0.04  0.00  0.00  0.00  0.00  0.00  0.00 52.81  5.34  75.0   1.4  50.6  1.00  1.00  1.00
   15 136    59    59  12.8  15.4  11.2  0.00  0.12  0.53  0.00  0.00  0.00  0.00  0.04  0.00  0.00  0.00  0.00  0.00  0.00 34.85  3.76  73.4   2.1  50.0  1.00  1.00  1.00
   15 137    60    60  14.1  15.5  12.5  0.00  0.12  0.47  0.00  0.00  0.00  0.00  0.04  0.00  0.00  0.00  0.00  0.00  0.00 46.24  5.27  73.7   1.6  49.0  1.00  1.00  1.00
   15 138    61    61  15.4  15.7  13.7  0.00  0.11  0.42  0.00  0.00  0.00  0.00  0.04  0.00  0.00  0.00  0.00  0.00  0.00 27.80  3.38  72.1   2.6  47.9  1.00  1.00  1.00
   15 139    62    62  13.9  15.8  12.4  0.00  0.11  0.48  0.00  0.00  0.00  0.00  0.04  0.00  0.00  0.00  0.00  0.00  0.00 48.30  3.94  87.3   1.8  46.6  1.00  1.00  1.00
   15 140    63    63   8.4  15.9   8.4  0.00  0.00  0.71  0.00  0.00  0.00  0.00  0.04  0.00  0.16  0.00  0.00  0.00  0.00 99.90  9.25 105.6   1.0  45.5  1.00  1.00  1.00
   15 141    64    64   9.8  15.9   9.8  0.00  0.00  0.65  0.00  0.00  0.00  0.00  0.04  0.00  0.02  0.00  0.00  0.00  0.00 72.68  6.89 105.1   1.4  45.3  1.00  1.00  1.00
   15 142    65    65   9.9  16.0   9.9  0.00  0.00  0.65  0.00  0.00  0.00  0.00  0.04  0.00  0.01  0.00  0.00  0.00  0.00 45.20  4.82  96.6   2.1  44.3  1.00  1.00  1.00
   15 143    66    66  11.7  16.1  11.7  0.00  0.00  0.57  0.00  0.00  0.00  0.00  0.04  0.00  0.00  0.00  0.00  0.00  0.00 45.51  5.02  97.8   2.1  43.2  1.00  1.00  1.00
   15 144    67    67  12.1  16.2  12.1  0.00  0.00  0.55  0.00  0.00  0.00  0.00  0.04  0.00  0.00  0.00  0.00  0.00  0.00 50.56  5.85  97.4   1.9  41.3  1.00  1.00  1.00
   15 145    68    68  14.6  30.2  14.5  0.00  0.00  0.46  0.00  0.00  0.00  0.00  0.04  0.00  0.00  0.00  0.00  0.00  0.00 39.64  4.80  96.6   2.4  39.4  0.99  0.98  0.99
   15 146    69    69  11.6  30.7  11.6  0.00  0.00  0.58  0.00  0.00  0.00  0.01  0.04  0.00  0.00  0.00  0.01  0.00  0.01 46.32  5.93  95.2   2.1  37.9  0.98  0.95  0.98
   15 147    70    70   9.2  31.1   9.2  0.00  0.00  0.67  0.00  0.00  0.00  0.03  0.04  0.00  0.07  0.00  0.03  0.00  0.03 39.82  5.41  92.9   2.3  36.7  0.98  0.94  0.98
   15 148    71    71  11.9  31.6  11.9  0.00  0.00  0.56  0.00  0.00  0.00  0.03  0.04  0.00  0.00  0.00  0.03  0.00  0.03 26.11  3.81  90.0   3.4  35.6  0.96  0.90  0.97
   15 149    72    72  15.6  32.3  15.6  0.00  0.00  0.42  0.00  0.00  0.00  0.05  0.04  0.00  0.00  0.00  0.05  0.00  0.05 23.67  3.43  87.4   3.7  34.5  0.93  0.83  0.96
   15 150    73    73  14.9  33.0  14.9  0.00  0.00  0.44  0.00  0.00  0.00  0.08  0.04  0.00  0.00  0.00  0.08  0.00  0.08 35.30  4.62  86.2   2.4  33.7  0.91  0.80  0.95
   15 151    74    74  15.4  33.7  15.4  0.00  0.00  0.42  0.00  0.00  0.00  0.11  0.04  0.00  0.00  0.00  0.11  0.00  0.11 25.28  3.47  84.1   3.3  33.0  0.88  0.75  0.95
   15 152    75    75  19.0  34.5  19.0  0.00  0.00  0.28  0.00  0.00  0.00  0.14  0.04  0.00  0.00  0.00  0.14  0.00  0.14 20.07  2.94  82.0   4.1  68.4  0.83  0.69  0.94
   15 153    76    76  19.8  35.4  19.8  0.00  0.00  0.25  0.00  0.00  0.00  0.20  0.04  0.00  0.00  0.00  0.20  0.00  0.20 20.40  3.13  80.1   3.9  70.0  0.78  0.65  0.94
   15 154    77    77  20.5  36.3  20.5  0.00  0.00  0.22  0.00  0.00  0.00  0.25  0.04  0.00  0.03  0.00  0.25  0.00  0.25 16.29  2.33  77.6   4.8  70.2  0.75  0.61  0.93
   15 155    78    78  19.7  37.2  19.7  0.00  0.00  0.25  0.00  0.00  0.00  0.30  0.04  0.00  0.00  0.00  0.30  0.00  0.30 16.64  2.23  75.3   4.5  70.1  0.72  0.57  0.93
   15 156    79    79  21.8  38.1  21.8  0.00  0.00  0.17  0.00  0.00  0.00  0.33  0.04  0.00  0.12  0.00  0.33  0.00  0.33 16.14  1.99  73.2   4.5  69.8  0.70  0.55  0.93
   15 157    80    80  21.8  39.1  21.8  0.00  0.00  0.17  0.00  0.00  0.00  0.35  0.04  0.00  0.12  0.00  0.35  0.00  0.35 13.37  1.36  72.4   5.4  69.4  0.68  0.52  0.92
   15 158    81    81  21.5  40.0  21.5  0.00  0.00  0.18  0.00  0.00  0.00  0.38  0.04  0.00  0.10  0.00  0.38  0.00  0.38 16.23  2.11  70.0   4.3  68.5  0.69  0.53  0.92
   15 159    82    82  16.1  40.7  16.1  0.00  0.00  0.39  0.00  0.00  0.00  0.37  0.04  0.00  0.00  0.00  0.37  0.00  0.37 25.40  1.83  84.8   3.3  66.0  0.71  0.54  0.92
   15 160    83    83  12.3  41.2  12.3  0.00  0.00  0.55  0.00  0.00  0.00  0.35  0.04  0.00  0.00  0.00  0.35  0.00  0.35 53.27  9.23  85.3   1.6  65.7  0.73  0.60  0.93
   15 161    84    84  14.7  41.8  14.7  0.00  0.00  0.45  0.00  0.00  0.00  0.33  0.04  0.00  0.00  0.00  0.33  0.00  0.33 27.55  4.90  83.7   3.0  65.1  0.75  0.66  0.93
   15 162    85    85  18.3  42.6  18.3  0.00  0.00  0.31  0.00  0.00  0.00  0.30  0.04  0.00  0.00  0.00  0.30  0.00  0.30 22.89  4.18  81.6   3.6  64.2  0.78  0.72  0.94
   15 163    86    86  20.9  43.5  20.9  0.00  0.00  0.20  0.00  0.00  0.00  0.27  0.04  0.00  0.06  0.00  0.27  0.00  0.27 14.62  2.76  77.8   5.3  63.3  0.81  0.79  0.95
   15 164    87    87  20.1  44.3  20.1  0.00  0.00  0.24  0.00  0.00  0.00  0.23  0.04  0.00  0.01  0.00  0.23  0.00  0.23 19.80  2.12  83.9   4.2  62.4  0.83  0.84  0.95
   15 165    88    88  20.1  45.1  20.1  0.00  0.00  0.24  0.00  0.00  0.00  0.20  0.04  0.00  0.01  0.00  0.20  0.00  0.20 25.45  3.65 101.7   4.0  61.7  0.86  0.88  0.96
   15 166    89    89  15.1  45.8  15.1  0.00  0.00  0.44  0.00  0.00  0.00  0.17  0.04  0.00  0.00  0.00  0.17  0.00  0.17 61.06  9.42 121.1   2.0  61.3  0.88  0.91  0.96
   15 167    90    90  15.2  46.4  15.2  0.00  0.00  0.43  0.00  0.00  0.00  0.15  0.04  0.00  0.00  0.00  0.15  0.00  0.15 37.44  6.61 119.2   3.2  61.3  0.90  0.94  0.97
   15 168    91    91  14.8  47.0  14.8  0.00  0.00  0.45  0.00  0.00  0.00  0.12  0.04  0.00  0.00  0.00  0.12  0.00  0.12 33.19  6.06 116.8   3.5  61.1  0.92  0.96  0.97
   15 169    92    92  13.2  47.6  13.2  0.00  0.00  0.51  0.00  0.00  0.00  0.10  0.04  0.00  0.00  0.00  0.10  0.00  0.10 40.87  7.00 126.6   3.1  60.8  0.94  0.98  0.98
   15 170    93    93  13.2  48.1  13.2  0.00  0.00  0.51  0.00  0.00  0.00  0.07  0.04  0.00  0.00  0.00  0.07  0.00  0.07 53.28  9.34 125.4   2.4  60.6  0.96  1.00  0.98
   15 171    94    94  12.2  48.6  12.2  0.00  0.00  0.55  0.00  0.00  0.00  0.05  0.04  0.00  0.00  0.00  0.05  0.00  0.05 48.69  9.37 124.5   2.6  60.5  0.97  1.00  0.98
   15 172    95    95  13.6  49.2  13.6  0.00  0.00  0.50  0.00  0.00  0.00  0.03  0.04  0.00  0.00  0.00  0.03  0.00  0.03 38.92  7.58 122.9   3.2  60.5  0.99  1.00  0.98
   15 173    96    96  16.2  49.9  16.2  0.00  0.00  0.39  0.00  0.00  0.00  0.01  0.04  0.00  0.00  0.00  0.01  0.00  0.01 38.05  6.97 130.7   3.4  60.4  1.00  1.00  0.99
   15 174    97    97  13.1  51.7  13.1  0.00  0.00  0.51  0.00  0.00  0.00  0.00  0.04  0.00  0.00  0.00  0.00  0.00  0.00 45.88  8.38 131.7   2.9  60.4  1.00  1.00  0.99
   15 175    98    98  13.9  54.0  13.9  0.00  0.00  0.48  0.00  0.00  0.00  0.00  0.04  0.00  0.00  0.00  0.00  0.00  0.00 33.43  6.35 128.8   3.9  60.7  1.00  1.00  0.99
   15 176    99    99  13.8  56.3  13.9  0.00  0.00  0.49  0.00  0.00  0.00  0.00  0.04  0.00  0.00  0.00  0.00  0.00  0.00 28.89  5.91 125.2   4.3  61.1  1.00  1.00  0.99
   15 177   100   100  16.5  59.1  16.5  0.00  0.00  0.38  0.00  0.00  0.00  0.00  0.04  0.00  0.00  0.00  0.00  0.00  0.00 25.55  5.46 121.4   4.8  61.3  1.00  1.00  1.00
   15 178   101   101  18.4  65.3  18.4  0.00  0.00  0.31  0.00  0.00  0.00  0.00  0.04  0.00  0.00  0.00  0.00  0.00  0.00 32.82  7.17 120.0   3.7  61.4  1.00  1.00  1.00
   15 179   102   102  17.9  70.4  17.9  0.00  0.00  0.33  0.00  0.00  0.00  0.00  0.04  0.00  0.00  0.00  0.00  0.00  0.00 31.41  6.37 117.5   3.7  61.8  1.00  1.00  1.00
   15 180   103   103  18.9  71.6  18.9  0.00  0.00  0.29  0.00  0.00  0.00  0.00  0.04  0.00  0.00  0.00  0.00  0.00  0.00 26.21  4.44 114.4   4.4  62.2  1.00  1.00  1.00
   15 181   104   104  20.6  73.0  20.6  0.00  0.00  0.22  0.00  0.00  0.00  0.00  0.04  0.00  0.04  0.00  0.00  0.00  0.00 21.15  3.59 110.7   5.2  62.7  1.00  1.00  1.00
   15 182   105   105  21.0  74.3  21.0  0.00  0.00  0.20  0.00  0.00  0.00  0.00  0.04  0.00  0.07  0.00  0.00  0.00  0.00 21.68  3.73 107.5   5.0  63.1  1.00  1.00  1.00
   15 183   106   106  22.2  75.7  22.2  0.00  0.00  0.15  0.00  0.00  0.00  0.00  0.04  0.00  0.15  0.00  0.00  0.00  0.00 20.85  2.81 104.6   5.0  98.4  1.00  1.00  1.00
   15 184   107   107  23.0  77.2  23.0  0.00  0.00  0.12  0.00  0.00  0.00  0.00  0.04  0.00  0.20  0.00  0.00  0.00  0.00 18.14  2.31 101.3   5.6  98.7  1.00  1.00  1.00
   15 185   108   108  24.6  78.8  24.6  0.00  0.00  0.06  0.00  0.00  0.00  0.00  0.04  0.00  0.30  0.00  0.00  0.00  0.00 17.75  1.44  98.1   5.5  89.4  1.00  1.00  0.97
   15 186   109   109  25.5  80.1  25.5  0.00  0.00  0.02  0.00  0.05  0.00  0.00  0.04  0.00  0.37  0.06  0.00  0.00  0.00 17.52  1.22  95.1   5.4  76.4  0.99  1.00  0.93
   15 187   110   110  23.2  80.4  23.2  0.00  0.00  0.02  0.00  0.00  0.14  0.02  0.04  0.00  0.21  0.34  0.02  0.28  0.02 21.67  0.86  93.7   4.3  75.9  0.94  0.99  0.89
   15 188   111   111  25.1  80.8  25.1  0.00  0.00  0.02  0.00  0.01  0.49  0.08  0.04  0.00  0.34  0.61  0.08  0.97  0.08 17.14  0.51  96.5   5.6  75.7  0.85  0.97  0.86
   15 189   112   112  17.4  81.0  17.4  0.00  0.00  0.02  0.00  0.00  0.00  0.19  0.04  0.00  0.00  0.00  0.19  0.00  0.19 33.51  3.15 101.4   3.0  75.8  0.87  0.98  0.87
   15 190   113   113  13.9  81.2  13.9  0.00  0.00  0.02  0.00  0.00  0.00  0.17  0.04  0.00  0.00  0.00  0.17  0.00  0.17 29.26  2.94  99.1   3.4  73.5  0.89  0.98  0.88
   15 191   114   114  14.9  81.4  14.9  0.00  0.00  0.02  0.00  0.00  0.00  0.15  0.04  0.00  0.00  0.00  0.15  0.00  0.15 22.95  2.33  96.3   4.2  71.6  0.90  0.99  0.88
   15 192   115   115  18.3  81.7  18.3  0.00  0.00  0.02  0.00  0.00  0.52  0.13  0.04  0.00  0.00  0.63  0.13  1.00  0.13 18.27  0.48  95.6   5.2  69.4  0.84  0.98  0.85
   15 193   116   116  20.5  82.0  20.5  0.00  0.00  0.02  0.00  0.00  0.52  0.21  0.04  0.00  0.03  0.63  0.21  1.00  0.21 21.01  0.48  95.3   4.5  69.1  0.78  0.96  0.83
   15 194   117   117  18.4  82.3  18.4  0.00  0.00  0.02  0.00  0.00  0.21  0.29  0.04  0.00  0.00  0.39  0.29  0.42  0.29 37.51  0.79  95.2   2.5  68.9  0.71  0.95  0.82
   15 195   118   118  20.6  82.6  20.6  0.00  0.00  0.02  0.00  0.00  0.49  0.38  0.04  0.00  0.04  0.60  0.38  0.97  0.38 25.15  0.51  95.2   3.8  68.8  0.63  0.93  0.80
   15 196   119   119  21.7  82.9  21.7  0.00  0.00  0.02  0.00  0.00  0.56  0.49  0.04  0.00  0.11  0.66  0.49  1.00  0.49 23.83  0.44  95.5   4.0  68.8  0.56  0.92  0.79
   15 197   120   120  22.4  83.2  22.4  0.00  0.00  0.02  0.00  0.00  0.66  0.59  0.04  0.00  0.16  0.74  0.59  1.00  0.59 19.11  0.34  96.0   5.0  68.8  0.51  0.91  0.78
   15 198   121   121  24.6  83.5  24.6  0.00  0.00  0.02  0.00  0.00  0.72  0.66  0.04  0.00  0.31  0.78  0.66  1.00  0.66 18.09  0.28  96.9   5.4  68.9  0.47  0.91  0.78
   15 199   122   122  22.0  83.8  22.0  0.00  0.00  0.02  0.00  0.00  0.72  0.72  0.04  0.00  0.13  0.78  0.72  1.00  0.72 22.51  0.28  97.8   4.3  69.1  0.43  0.91  0.77
   15 200   123   123  22.4  84.2  22.4  0.00  0.00  0.02  0.00  0.00  0.73  0.77  0.04  0.00  0.16  0.80  0.77  1.00  0.77 24.44  0.27  98.9   4.0  69.3  0.41  0.90  0.77
   15 201   124   124  23.3  84.5  23.3  0.00  0.00  0.02  0.00  0.00  0.74  0.81  0.04  0.00  0.22  0.80  0.81  1.00  0.81 27.70  0.26 100.2   3.6  69.5  0.39  0.90  0.76
   15 202   125   125  24.2  84.8  24.2  0.00  0.00  0.02  0.00  0.00  0.80  0.85  0.04  0.00  0.28  0.85  0.85  1.00  0.85 22.97  0.20 101.7   4.4  69.7  0.37  0.91  0.76
   15 203   126   126  25.0  85.2  25.0  0.00  0.00  0.02  0.00  0.00  0.83  0.87  0.04  0.00  0.33  0.87  0.87  1.00  0.87 21.33  0.17 103.3   4.8  70.0  0.36  0.91  0.76
   15 204   127   127  21.4  85.5  21.4  0.00  0.00  0.02  0.00  0.00  0.70  0.90  0.04  0.00  0.09  0.77  0.90  1.00  0.90 42.26  0.30 104.6   2.5  70.2  0.35  0.91  0.76
   15 205   128   128  22.0  85.8  22.0  0.00  0.00  0.02  0.00  0.00  0.82  0.92  0.04  0.00  0.13  0.86  0.92  1.00  0.92 28.03  0.18 106.1   3.8  70.5  0.35  0.92  0.76
   15 206   129   129  18.8  86.1  18.8  0.00  0.00  0.02  0.00  0.00  0.80  0.93  0.04  0.00  0.00  0.84  0.93  1.00  0.93 33.37  0.20 107.3   3.2  70.8  0.34  0.92  0.76
   15 207   130   130  15.6  86.3  15.5  0.00  0.00  0.02  0.00  0.00  0.82  0.94  0.04  0.00  0.00  0.86  0.94  1.00  0.94 33.48  0.18 108.3   3.2  71.0  0.34  0.92  0.75
   15 208   131   131  18.3  86.6  18.3  0.00  0.00  0.02  0.00  0.00  0.80  0.95  0.04  0.00  0.00  0.85  0.95  1.00  0.95 39.93  0.20 112.4   2.8  71.2  0.34  0.93  0.75
   15 209   132   132  17.5  86.8  17.5  0.00  0.00  0.02  0.00  0.00  0.00  0.96  0.04  0.00  0.00  0.00  0.96  0.00  0.96 42.02  2.83 112.1   2.7  71.5  0.34  0.93  0.75
   15 210   133   133  15.0  87.0  15.0  0.00  0.00  0.02  0.00  0.00  0.65  0.97  0.04  0.00  0.00  0.73  0.97  1.00  0.97 45.01  0.35 113.2   2.5  69.7  0.34  0.93  0.75
   15 211   134   134  14.6  87.2  14.6  0.00  0.00  0.02  0.00  0.00  0.65  0.97  0.04  0.00  0.00  0.73  0.97  1.00  0.97 40.57  0.35 113.2   2.8  69.7  0.34  0.94  0.75
   15 212   135   135  16.4  87.5  16.4  0.00  0.00  0.02  0.00  0.00  0.80  0.98  0.04  0.00  0.00  0.84  0.98  1.00  0.98 41.63  0.20 114.2   2.7  69.6  0.34  0.94  0.75
   15 213   136   136  17.0  87.7  17.0  0.00  0.00  0.02  0.00  0.00  0.76  0.98  0.04  0.00  0.00  0.81  0.98  1.00  0.98 61.51  0.24 115.4   1.9  69.7  0.35  0.95  0.75
   15 214   137   137  19.0  88.0  19.0  0.00  0.00  0.02  0.00  0.00  0.82  0.99  0.04  0.00  0.00  0.86  0.99  1.00  0.99 49.15  0.18 116.8   2.4  69.9  0.35  0.95  0.75
   15 215   138   138  19.8  88.3  19.8  0.00  0.00  0.02  0.00  0.00  0.84  0.99  0.04  0.00  0.00  0.88  0.99  1.00  0.99 44.00  0.16 118.4   2.7  70.1  0.36  0.96  0.75
   15 216   139   139  21.9  88.6  21.9  0.00  0.00  0.02  0.00  0.00  0.85  0.99  0.04  0.00  0.12  0.89  0.99  1.00  0.99 43.22  0.15 120.1   2.8  70.3  0.36  0.97  0.75
   15 217   140   140  21.8  88.9  21.8  0.00  0.00  0.02  0.00  0.00  0.83  0.99  0.04  0.00  0.12  0.87  0.99  1.00  0.99 53.06  0.17 121.9   2.3  70.5  0.37  0.97  0.75
   15 218   141   141  23.4  89.2  23.4  0.00  0.00  0.02  0.00  0.00  0.84  0.99  0.04  0.00  0.23  0.88  0.99  1.00  0.99 51.82  0.16 123.8   2.4  70.8  0.38  0.98  0.75
   15 219   142   142  24.8  89.6  24.8  0.00  0.00  0.02  0.00  0.00  0.83  1.00  0.04  0.00  0.32  0.87  1.00  1.00  1.00 57.35  0.17 125.9   2.2  71.0  0.39  0.99  0.75
   15 220   143   143  25.2  89.9  25.2  0.00  0.00  0.02  0.00  0.02  0.80  1.00  0.04  0.00  0.34  0.85  1.00  1.00  1.00 71.03  0.20 128.1   1.8  71.3  0.40  1.00  0.75
   15 221   144   144  24.7  91.1  24.7  0.00  0.00  0.02  0.00  0.00  0.74  1.00  0.04  0.00  0.31  0.80  1.00  1.00  1.00 95.03  0.26 130.2   1.4  71.6  0.41  1.00  0.75

*DSSAT Cropping System Model Ver. 4.8.5.000 -release  OCT 24, 2025 14:14:59

*RUN   2        : 2                         CSCER048 TUDU1501    2
 MODEL          : CSCER048 - Wheat
 EXPERIMENT     : TUDU1501 WH
 DATA PATH      :
 TREATMENT  2   : 2                         CSCER048
  
!........DATES.......  TEMP STAGE  ...PHENOLOGY....  .......PHOTOSYNTHESIS.......  .....GROWTH.....  ..TILLERS. WATER STRESS DETERMINANTS N STRESS DETERMINANTS       
@YEAR DOY   DAS   DAP TMEAN  GSTD    DU VRNFD DYLFD TFGEM  WFGE  TFPD  WFPD  NFPD CO2FD RSFPD  TFGD  WFGD  NFGD  WFTD  NFTD WAVRD WUPRD  SWXD  EOPD  SNXD LN%RD SN%RD RN%RD      
   15  77     0     0   7.7   0.0   7.6  1.00  0.00  0.73  0.00  0.00  0.00  0.00  0.04  0.00  0.24  0.00  0.00  0.00  0.00 99.90  1.00   3.0   0.0  31.3  0.00  0.00  0.00
   15  78     1     1   6.3   2.6   0.0  1.00  0.00  0.79  0.00  0.00  0.00  0.00  0.04  0.00  0.37  0.00  0.00  0.00  0.00 99.90  1.00   2.5   0.0  31.3  0.00  0.00  0.00
   15  79     2     2   5.4   4.8   0.0  1.00  0.00  0.83  0.00  0.00  0.00  0.00  0.04  0.00  0.46  0.00  0.00  0.00  0.00 99.90  1.00   2.1   0.0  31.3  0.00  0.00  0.00
   15  80     3     3   5.3   6.0   0.0  1.00  0.00  0.83  0.00  0.00  0.00  0.00  0.04  0.00  0.47  0.00  0.00  0.00  0.00 99.90  1.00   2.9   0.0  31.3  0.00  0.00  0.00
   15  81     4     4   4.1   6.8   0.0  0.95  0.00  0.87  0.00  0.00  0.00  0.00  0.04  0.00  0.59  0.00  0.00  0.00  0.00 99.90  1.00   3.5   0.0  31.4  0.00  0.00  1.00
   15  82     5     5   2.8   7.2   0.1  0.90  0.00  0.93  0.00  0.00  0.00  0.00  0.04  0.00  0.73  0.00  0.00  0.00  0.00 99.90  1.00   3.3   0.0  31.4  0.00  0.00  1.00
   15  83     6     6   6.6   8.6   0.7  0.85  0.00  0.78  0.00  0.00  0.00  0.00  0.04  0.00  0.34  0.00  0.00  0.00  0.00 99.90  1.00   3.5   0.0  31.4  0.00  0.00  1.00
   15  84     7     7   8.9  10.0   1.3  0.81  0.00  0.68  0.00  0.00  0.00  0.00  0.04  0.00  0.11  0.00  0.00  0.00  0.00 99.90  1.00   4.3   0.0  31.4  0.00  0.00  1.00
   15  85     8     8   6.3  10.1   0.7  0.76  0.41  0.79  0.00  0.00  0.00  0.00  0.04  0.00  0.37  0.00  0.00  0.00  0.00 99.90  1.00   5.5   0.0  31.4  1.00  0.00  1.00
   15  86     9     9   6.5  10.2   0.9  0.71  0.40  0.78  0.00  0.00  0.00  0.00  0.04  0.00  0.35  0.00  0.00  0.00  0.00 99.90  4.30   7.0   0.0  31.4  1.00  0.01  1.00
   15  87    10    10   6.4  10.3   1.1  0.66  0.40  0.78  0.00  0.00  0.00  0.00  0.04  0.00  0.36  0.00  0.00  0.00  0.00 99.90  1.73   7.4   0.0  31.4  1.00  0.01  1.00
   15  88    11    11   9.5  10.5   2.0  0.63  0.39  0.66  0.00  0.00  0.00  0.00  0.04  0.00  0.05  0.00  0.00  0.00  0.00 99.90  1.71   9.1   0.1  31.4  1.00  0.01  1.00
   15  89    12    12   6.7  10.6   1.5  0.58  0.38  0.77  0.00  0.00  0.00  0.00  0.04  0.00  0.33  0.00  0.00  0.00  0.00 99.90  1.33  15.7   0.1  31.4  1.00  0.01  1.00
   15  90    13    13   7.8  10.7   2.0  0.53  0.37  0.73  0.00  0.00  0.13  0.00  0.04  0.00  0.23  0.33  0.00  0.26  0.00 99.90  0.87  18.1   0.2  31.4  0.91  0.02  0.99
   15  91    14    14   3.3  10.8   1.0  0.48  0.37  0.91  0.00  0.33  0.00  0.10  0.04  0.00  0.67  0.00  0.10  0.00  0.10 99.90  1.58  19.8   0.1  31.4  0.90  0.07  0.96
   15  92    15    15   3.1  10.8   1.0  0.43  0.36  0.92  0.00  0.38  0.00  0.11  0.04  0.00  0.69  0.00  0.11  0.00  0.11 99.90  1.81  21.8   0.1  31.3  0.90  0.13  0.94
   15  93    16    16   4.2  10.9   1.5  0.38  0.35  0.87  0.00  0.17  0.00  0.12  0.04  0.00  0.58  0.00  0.12  0.00  0.12 99.90  1.34  18.9   0.2  31.2  0.87  0.16  0.91
   15  94    17    17   3.6  11.0   1.5  0.33  0.35  0.90  0.00  0.28  0.00  0.15  0.04  0.00  0.64  0.00  0.15  0.00  0.15 99.90  2.86  21.8   0.1  31.1  0.87  0.21  0.89
   15  95    18    18   2.5  11.0   1.1  0.28  0.34  0.94  0.00  0.51  0.00  0.15  0.04  0.00  0.75  0.00  0.15  0.00  0.15 99.90  1.86  19.4   0.2  31.0  0.88  0.28  0.91
   15  96    19    19   1.9  11.0   0.9  0.23  0.33  0.96  0.00  0.62  0.00  0.14  0.04  0.00  0.81  0.00  0.14  0.00  0.14 99.90  2.06  18.7   0.2  30.9  0.89  0.33  0.92
   15  97    20    20   2.9  11.1   1.5  0.18  0.32  0.92  0.00  0.42  0.00  0.13  0.04  0.00  0.71  0.00  0.13  0.00  0.13 92.69  1.78  18.2   0.2  30.9  0.89  0.39  0.92
   15  98    21    21   6.6  11.2   3.7  0.13  0.32  0.78  0.00  0.00  0.00  0.12  0.04  0.00  0.34  0.00  0.12  0.00  0.12 74.05  1.58  18.1   0.2  70.8  0.91  0.54  0.94
   15  99    22    22  10.2  11.4   6.1  0.10  0.31  0.63  0.00  0.00  0.00  0.10  0.04  0.00  0.00  0.00  0.10  0.00  0.10 57.44  1.42  18.5   0.3  70.4  0.87  0.60  0.91
   15 100    23    23  11.4  11.5   7.1  0.08  0.30  0.59  0.00  0.00  0.00  0.15  0.04  0.00  0.00  0.09  0.15  0.00  0.15 41.13  1.18  19.0   0.5  69.8  0.81  0.59  0.88
   15 101    24    24  11.7  11.7   7.6  0.06  0.30  0.57  0.00  0.00  0.00  0.21  0.04  0.00  0.00  0.00  0.21  0.00  0.21 43.95  1.48  19.7   0.4  69.3  0.75  0.55  0.86
   15 102    25    25  12.3  11.9   8.2  0.04  0.29  0.55  0.00  0.00  0.33  0.28  0.04  0.00  0.00  0.48  0.28  0.66  0.28 38.44  0.67  20.6   0.5  69.0  0.72  0.52  0.85
   15 103    26    26  11.9  12.1   8.1  0.02  0.28  0.57  0.00  0.00  0.47  0.32  0.04  0.00  0.00  0.59  0.32  0.93  0.32 37.26  0.53  21.6   0.6  68.8  0.71  0.51  0.84
   15 104    27    27  12.1  12.2   8.5  0.00  0.28  0.56  0.00  0.00  0.50  0.33  0.04  0.00  0.00  0.61  0.33  0.99  0.33 37.37  0.50  22.6   0.6  68.7  0.70  0.51  0.84
   15 105    28    28  14.4  12.3  10.4  0.00  0.27  0.46  0.00  0.00  0.59  0.34  0.04  0.00  0.00  0.68  0.34  1.00  0.34 31.70  0.41  24.1   0.8  68.7  0.70  0.50  0.83
   15 106    29    29  15.7  12.4  11.5  0.00  0.27  0.41  0.00  0.00  0.51  0.35  0.04  0.00  0.00  0.62  0.35  1.00  0.35 40.04  0.49  26.1   0.7  68.8  0.68  0.48  0.83
   15 107    30    30  10.9  12.5   8.0  0.00  0.26  0.61  0.00  0.00  0.40  0.36  0.04  0.00  0.00  0.54  0.36  0.81  0.36 83.71  0.60  47.7   0.6  68.8  0.70  0.54  0.84
   15 108    31    31   5.5  12.6   4.1  0.00  0.25  0.82  0.00  0.00  0.00  0.34  0.04  0.00  0.45  0.00  0.34  0.00  0.34 88.64  2.49  42.2   0.5  68.6  0.72  0.59  0.86
   15 109    32    32   6.4  12.6   4.8  0.00  0.25  0.78  0.00  0.00  0.00  0.32  0.04  0.00  0.36  0.00  0.32  0.00  0.32 66.95  2.20  39.6   0.6  68.5  0.74  0.64  0.88
   15 110    33    33   8.1  12.7   6.2  0.00  0.24  0.71  0.00  0.00  0.00  0.29  0.04  0.00  0.19  0.00  0.29  0.00  0.29 53.12  2.00  38.4   0.7  68.2  0.76  0.69  0.90
   15 111    34    34  10.7  12.8   8.1  0.00  0.24  0.61  0.00  0.00  0.00  0.27  0.04  0.00  0.00  0.00  0.27  0.00  0.27 45.80  1.94  38.0   0.8  67.9  0.79  0.76  0.91
   15 112    35    35  11.2  12.9   8.6  0.00  0.23  0.59  0.00  0.00  0.00  0.24  0.04  0.00  0.00  0.00  0.24  0.00  0.24 44.11  2.09  37.8   0.9  67.4  0.81  0.81  0.93
   15 113    36    36   6.1  12.9   4.7  0.00  0.22  0.80  0.00  0.00  0.00  0.21  0.04  0.00  0.39  0.00  0.21  0.00  0.21 56.69  1.94  37.3   0.7  66.9  0.83  0.84  0.94
   15 114    37    37   8.8  13.0   6.8  0.00  0.22  0.69  0.00  0.00  0.00  0.20  0.04  0.00  0.12  0.20  0.20  0.00  0.20 40.61  1.04  36.9   0.9  66.6  0.85  0.87  0.95
   15 115    38    38  11.4  13.1   9.0  0.00  0.21  0.58  0.00  0.00  0.00  0.18  0.04  0.00  0.00  0.20  0.18  0.00  0.18 40.87  1.04  38.4   0.9  66.2  0.86  0.90  0.95
   15 116    39    39  15.1  13.2  11.9  0.00  0.21  0.44  0.00  0.00  0.00  0.16  0.04  0.00  0.00  0.00  0.16  0.00  0.16 49.00  1.61  40.3   0.8  65.7  0.88  0.94  0.96
   15 117    40    40  14.5  13.3  11.6  0.00  0.20  0.46  0.00  0.00  0.00  0.13  0.04  0.00  0.00  0.00  0.13  0.00  0.13 40.29  2.09  45.9   1.1  65.0  0.90  0.97  0.96
   15 118    41    41   8.3  13.4   6.7  0.00  0.20  0.71  0.00  0.00  0.00  0.11  0.04  0.00  0.17  0.00  0.11  0.00  0.11 73.51  4.34  51.6   0.7  64.2  0.91  0.98  0.97
   15 119    42    42   7.0  13.5   5.6  0.00  0.19  0.76  0.00  0.00  0.00  0.10  0.04  0.00  0.30  0.00  0.10  0.00  0.10 55.08  3.55  50.2   0.9  63.9  0.92  0.99  0.97
   15 120    43    43  10.4  13.5   8.4  0.00  0.19  0.63  0.00  0.00  0.00  0.09  0.04  0.00  0.00  0.00  0.09  0.00  0.09 55.31  3.83  50.3   0.9  63.6  0.93  1.00  0.98
   15 121    44    44   8.6  13.6   7.1  0.00  0.18  0.69  0.00  0.00  0.00  0.08  0.04  0.00  0.14  0.00  0.08  0.00  0.08 99.90  9.69  75.1   0.4  63.1  0.94  1.00  0.98
   15 122    45    45  10.5  13.7   8.6  0.00  0.18  0.62  0.00  0.00  0.00  0.07  0.04  0.00  0.00  0.00  0.07  0.00  0.07 94.10  4.96  72.3   0.8  62.8  0.95  1.00  0.98
   15 123    46    46  13.2  13.8  11.0  0.00  0.17  0.51  0.00  0.00  0.00  0.06  0.04  0.00  0.00  0.00  0.06  0.00  0.06 93.57  4.74  79.1   0.8  62.3  0.96  1.00  0.99
   15 124    47    47  17.5  14.0  14.5  0.00  0.17  0.34  0.00  0.00  0.00  0.05  0.04  0.00  0.00  0.00  0.05  0.00  0.05 68.60  4.15  69.5   1.0  61.2  0.97  1.00  0.99
   15 125    48    48  19.4  14.1  16.2  0.00  0.16  0.26  0.00  0.00  0.00  0.03  0.04  0.00  0.00  0.00  0.03  0.00  0.03 44.33  2.79  70.3   1.6  60.4  0.98  1.00  0.99
   15 126    49    49  11.6  14.2   9.7  0.00  0.16  0.58  0.00  0.00  0.00  0.02  0.04  0.00  0.00  0.00  0.02  0.00  0.02 92.95  4.95  89.3   1.0  59.4  0.99  1.00  0.99
   15 127    50    50  13.0  14.3  11.0  0.00  0.15  0.52  0.00  0.00  0.00  0.02  0.04  0.00  0.00  0.00  0.02  0.00  0.02 57.91  3.77  76.8   1.3  58.1  0.99  1.00  1.00
   15 128    51    51  15.5  14.5  13.2  0.00  0.15  0.42  0.00  0.00  0.00  0.01  0.04  0.00  0.00  0.00  0.01  0.00  0.01 42.59  3.18  71.0   1.7  57.4  1.00  1.00  1.00
   15 129    52    52  14.2  14.6  12.1  0.00  0.15  0.47  0.00  0.00  0.00  0.00  0.04  0.00  0.00  0.00  0.00  0.00  0.00 64.19  4.88  74.7   1.2  56.9  1.00  1.00  1.00
   15 130    53    53  13.2  14.7  11.3  0.00  0.14  0.51  0.00  0.00  0.00  0.00  0.04  0.00  0.00  0.00  0.00  0.00  0.00 46.79  3.84  72.6   1.6  56.5  1.00  1.00  1.00
   15 131    54    54  13.7  14.8  11.8  0.00  0.14  0.49  0.00  0.00  0.00  0.00  0.04  0.00  0.00  0.00  0.00  0.00  0.00 36.86  3.30  70.6   1.9  56.1  1.00  1.00  1.00
   15 132    55    55  18.0  14.9  15.5  0.00  0.13  0.32  0.00  0.00  0.00  0.00  0.04  0.00  0.00  0.00  0.00  0.00  0.00 29.79  2.88  69.7   2.3  55.7  1.00  1.00  1.00
   15 133    56    56  17.8  15.1  15.4  0.00  0.13  0.33  0.00  0.00  0.00  0.00  0.04  0.00  0.00  0.00  0.00  0.00  0.00 47.39  4.53  75.6   1.6  55.0  1.00  1.00  1.00
   15 134    57    57  15.0  15.2  13.1  0.00  0.13  0.44  0.00  0.00  0.00  0.00  0.04  0.00  0.00  0.00  0.00  0.00  0.00 51.37  5.15  75.5   1.5  54.0  1.00  1.00  1.00
   15 135    58    58  11.4  15.3  10.0  0.00  0.12  0.58  0.00  0.00  0.00  0.00  0.04  0.00  0.00  0.00  0.00  0.00  0.00 51.92  5.47  74.9   1.4  52.8  1.00  1.00  1.00
   15 136    59    59  12.8  15.4  11.2  0.00  0.12  0.53  0.00  0.00  0.00  0.00  0.04  0.00  0.00  0.00  0.00  0.00  0.00 34.29  3.86  73.2   2.1  52.2  1.00  1.00  1.00
   15 137    60    60  14.1  15.5  12.5  0.00  0.12  0.47  0.00  0.00  0.00  0.00  0.04  0.00  0.00  0.00  0.00  0.00  0.00 45.54  5.40  73.5   1.6  51.2  1.00  1.00  1.00
   15 138    61    61  15.4  15.7  13.7  0.00  0.11  0.42  0.00  0.00  0.00  0.00  0.04  0.00  0.00  0.00  0.00  0.00  0.00 27.40  3.46  71.9   2.6  50.2  1.00  1.00  1.00
   15 139    62    62  13.9  15.8  12.4  0.00  0.11  0.48  0.00  0.00  0.00  0.00  0.04  0.00  0.00  0.00  0.00  0.00  0.00 47.68  4.11  87.0   1.8  48.8  1.00  1.00  1.00
   15 140    63    63   8.4  15.9   8.4  0.00  0.00  0.71  0.00  0.00  0.00  0.00  0.04  0.00  0.16  0.00  0.00  0.00  0.00 99.54  9.47 105.4   1.1  47.8  1.00  1.00  1.00
   15 141    64    64   9.8  15.9   9.8  0.00  0.00  0.65  0.00  0.00  0.00  0.00  0.04  0.00  0.02  0.00  0.00  0.00  0.00 71.91  7.06 104.9   1.5  47.6  1.00  1.00  1.00
   15 142    65    65   9.9  16.0   9.9  0.00  0.00  0.65  0.00  0.00  0.00  0.00  0.04  0.00  0.01  0.00  0.00  0.00  0.00 44.79  4.94  96.5   2.2  46.6  1.00  1.00  1.00
   15 143    66    66  11.7  16.1  11.7  0.00  0.00  0.57  0.00  0.00  0.00  0.00  0.04  0.00  0.00  0.00  0.00  0.00  0.00 45.11  5.14  97.7   2.2  45.5  1.00  1.00  1.00
   15 144    67    67  12.1  16.2  12.1  0.00  0.00  0.55  0.00  0.00  0.00  0.00  0.04  0.00  0.00  0.00  0.00  0.00  0.00 50.18  5.99  97.3   1.9  43.6  1.00  1.00  1.00
   15 145    68    68  14.6  30.2  14.5  0.00  0.00  0.46  0.00  0.00  0.00  0.00  0.04  0.00  0.00  0.00  0.00  0.00  0.00 39.37  4.91  96.5   2.5  41.7  1.00  0.99  1.00
   15 146    69    69  11.6  30.7  11.6  0.00  0.00  0.58  0.00  0.00  0.00  0.00  0.04  0.00  0.00  0.00  0.00  0.00  0.00 46.02  6.07  95.1   2.1  39.7  1.00  0.99  0.99
   15 147    70    70   9.2  31.1   9.2  0.00  0.00  0.67  0.00  0.00  0.00  0.00  0.04  0.00  0.07  0.00  0.00  0.00  0.00 39.57  5.53  92.8   2.3  38.1  1.00  0.98  0.99
   15 148    71    71  11.9  31.6  11.9  0.00  0.00  0.56  0.00  0.00  0.00  0.00  0.04  0.00  0.00  0.00  0.00  0.00  0.00 25.93  3.90  89.9   3.5  36.9  0.98  0.94  0.98
   15 149    72    72  15.6  32.3  15.6  0.00  0.00  0.42  0.00  0.00  0.00  0.02  0.04  0.00  0.00  0.00  0.02  0.00  0.02 23.49  3.61  87.2   3.7  35.8  0.95  0.87  0.97
   15 150    73    73  14.9  33.0  14.9  0.00  0.00  0.44  0.00  0.00  0.00  0.05  0.04  0.00  0.00  0.00  0.05  0.00  0.05 35.02  4.75  86.0   2.5  34.9  0.93  0.84  0.97
   15 151    74    74  15.4  33.7  15.4  0.00  0.00  0.42  0.00  0.00  0.00  0.08  0.04  0.00  0.00  0.00  0.08  0.00  0.08 25.07  3.57  83.9   3.3  34.1  0.91  0.80  0.96
   15 152    75    75  19.0  34.5  19.0  0.00  0.00  0.28  0.00  0.00  0.00  0.10  0.04  0.00  0.00  0.00  0.10  0.00  0.10 19.90  3.02  81.7   4.1  73.3  0.86  0.74  0.95
   15 153    76    76  19.8  35.4  19.8  0.00  0.00  0.25  0.00  0.00  0.00  0.17  0.04  0.00  0.00  0.00  0.17  0.00  0.17 20.21  3.22  79.8   4.0  72.8  0.81  0.69  0.95
   15 154    77    77  20.5  36.3  20.5  0.00  0.00  0.22  0.00  0.00  0.00  0.23  0.04  0.00  0.03  0.00  0.23  0.00  0.23 16.13  2.30  77.3   4.8  72.5  0.77  0.64  0.94
   15 155    78    78  19.7  37.2  19.7  0.00  0.00  0.25  0.00  0.00  0.00  0.27  0.04  0.00  0.00  0.00  0.27  0.00  0.27 16.46  2.26  75.0   4.6  72.2  0.74  0.61  0.94
   15 156    79    79  21.8  38.1  21.8  0.00  0.00  0.17  0.00  0.00  0.00  0.31  0.04  0.00  0.12  0.00  0.31  0.00  0.31 15.96  1.93  72.8   4.6  72.1  0.72  0.58  0.94
   15 157    80    80  21.8  39.1  21.8  0.00  0.00  0.17  0.00  0.00  0.00  0.33  0.04  0.00  0.12  0.00  0.33  0.00  0.33 13.22  1.36  72.0   5.4  71.9  0.70  0.55  0.93
   15 158    81    81  21.5  40.0  21.5  0.00  0.00  0.18  0.00  0.00  0.00  0.35  0.04  0.00  0.10  0.00  0.35  0.00  0.35 16.05  2.12  69.6   4.3  71.9  0.70  0.56  0.93
   15 159    82    82  16.1  40.7  16.1  0.00  0.00  0.39  0.00  0.00  0.00  0.35  0.04  0.00  0.00  0.00  0.35  0.00  0.35 25.15  1.76  84.4   3.4  69.9  0.72  0.57  0.93
   15 160    83    83  12.3  41.2  12.3  0.00  0.00  0.55  0.00  0.00  0.00  0.33  0.04  0.00  0.00  0.00  0.33  0.00  0.33 52.76  9.30  84.9   1.6  69.7  0.74  0.62  0.94
   15 161    84    84  14.7  41.8  14.7  0.00  0.00  0.45  0.00  0.00  0.00  0.31  0.04  0.00  0.00  0.00  0.31  0.00  0.31 27.28  4.94  83.3   3.1  69.2  0.77  0.68  0.94
   15 162    85    85  18.3  42.6  18.3  0.00  0.00  0.31  0.00  0.00  0.00  0.28  0.04  0.00  0.00  0.00  0.28  0.00  0.28 22.66  4.25  81.2   3.6  68.4  0.79  0.74  0.95
   15 163    86    86  20.9  43.5  20.9  0.00  0.00  0.20  0.00  0.00  0.00  0.25  0.04  0.00  0.06  0.00  0.25  0.00  0.25 14.47  2.81  77.4   5.3  67.7  0.82  0.80  0.95
   15 164    87    87  20.1  44.3  20.1  0.00  0.00  0.24  0.00  0.00  0.00  0.22  0.04  0.00  0.01  0.00  0.22  0.00  0.22 19.60  2.21  83.5   4.3  66.8  0.85  0.85  0.96
   15 165    88    88  20.1  45.1  20.1  0.00  0.00  0.24  0.00  0.00  0.00  0.18  0.04  0.00  0.01  0.00  0.18  0.00  0.18 25.22  3.72 101.4   4.0  66.2  0.87  0.89  0.97
   15 166    89    89  15.1  45.8  15.1  0.00  0.00  0.44  0.00  0.00  0.00  0.15  0.04  0.00  0.00  0.00  0.15  0.00  0.15 60.54  9.63 120.8   2.0  65.9  0.89  0.92  0.97
   15 167    90    90  15.2  46.4  15.2  0.00  0.00  0.43  0.00  0.00  0.00  0.13  0.04  0.00  0.00  0.00  0.13  0.00  0.13 37.12  6.76 118.8   3.2  65.9  0.91  0.95  0.97
   15 168    91    91  14.8  47.0  14.8  0.00  0.00  0.45  0.00  0.00  0.00  0.10  0.04  0.00  0.00  0.00  0.10  0.00  0.10 32.90  6.20 116.4   3.5  65.8  0.93  0.97  0.98
   15 169    92    92  13.2  47.6  13.2  0.00  0.00  0.51  0.00  0.00  0.00  0.08  0.04  0.00  0.00  0.00  0.08  0.00  0.08 40.52  7.16 126.3   3.1  65.5  0.95  0.99  0.98
   15 170    93    93  13.2  48.1  13.2  0.00  0.00  0.51  0.00  0.00  0.00  0.06  0.04  0.00  0.00  0.00  0.06  0.00  0.06 52.82  9.55 125.0   2.4  65.3  0.97  1.00  0.98
   15 171    94    94  12.2  48.6  12.2  0.00  0.00  0.55  0.00  0.00  0.00  0.04  0.04  0.00  0.00  0.00  0.04  0.00  0.04 48.27  9.38 124.1   2.6  65.3  0.98  1.00  0.99
   15 172    95    95  13.6  49.2  13.6  0.00  0.00  0.50  0.00  0.00  0.00  0.02  0.04  0.00  0.00  0.00  0.02  0.00  0.02 38.58  7.62 122.6   3.2  65.3  1.00  1.00  0.99
   15 173    96    96  16.2  49.9  16.2  0.00  0.00  0.39  0.00  0.00  0.00  0.00  0.04  0.00  0.00  0.00  0.00  0.00  0.00 37.72  7.04 130.4   3.5  65.2  1.00  1.00  0.99
   15 174    97    97  13.1  51.7  13.1  0.00  0.00  0.51  0.00  0.00  0.00  0.00  0.04  0.00  0.00  0.00  0.00  0.00  0.00 45.48  8.48 131.3   2.9  65.2  1.00  1.00  0.99
   15 175    98    98  13.9  54.0  13.9  0.00  0.00  0.48  0.00  0.00  0.00  0.00  0.04  0.00  0.00  0.00  0.00  0.00  0.00 33.14  6.41 128.4   3.9  65.6  1.00  1.00  0.99
   15 176    99    99  13.8  56.3  13.9  0.00  0.00  0.49  0.00  0.00  0.00  0.00  0.04  0.00  0.00  0.00  0.00  0.00  0.00 28.66  6.01 125.0   4.4  66.0  1.00  1.00  1.00
   15 177   100   100  16.5  59.1  16.5  0.00  0.00  0.38  0.00  0.00  0.00  0.00  0.04  0.00  0.00  0.00  0.00  0.00  0.00 25.34  5.55 121.2   4.8  66.4  1.00  1.00  1.00
   15 178   101   101  18.4  65.3  18.4  0.00  0.00  0.31  0.00  0.00  0.00  0.00  0.04  0.00  0.00  0.00  0.00  0.00  0.00 32.54  7.18 119.7   3.7  66.8  1.00  1.00  1.00
   15 179   102   102  17.9  70.4  17.9  0.00  0.00  0.33  0.00  0.00  0.00  0.00  0.04  0.00  0.00  0.00  0.00  0.00  0.00 31.14  6.99 117.2   3.8  67.2  1.00  1.00  1.00
   15 180   103   103  18.9  71.6  18.9  0.00  0.00  0.29  0.00  0.00  0.00  0.00  0.04  0.00  0.00  0.00  0.00  0.00  0.00 25.97  4.56 114.1   4.4  67.6  1.00  1.00  1.00
   15 181   104   104  20.6  73.0  20.6  0.00  0.00  0.22  0.00  0.00  0.00  0.00  0.04  0.00  0.04  0.00  0.00  0.00  0.00 20.94  3.66 110.4   5.3  68.0  1.00  1.00  1.00
   15 182   105   105  21.0  74.3  21.0  0.00  0.00  0.20  0.00  0.00  0.00  0.00  0.04  0.00  0.07  0.00  0.00  0.00  0.00 21.44  3.69 107.1   5.0  68.5  1.00  1.00  1.00
   15 183   106   106  22.2  75.7  22.2  0.00  0.00  0.15  0.00  0.00  0.00  0.00  0.04  0.00  0.15  0.00  0.00  0.00  0.00 20.61  2.77 104.1   5.1 109.0  1.00  1.00  1.00
   15 184   107   107  23.0  77.2  23.0  0.00  0.00  0.12  0.00  0.00  0.00  0.00  0.04  0.00  0.20  0.00  0.00  0.00  0.00 17.92  2.22 100.7   5.6 108.9  1.00  1.00  1.00
   15 185   108   108  24.6  78.8  24.6  0.00  0.00  0.06  0.00  0.00  0.00  0.00  0.04  0.00  0.30  0.00  0.00  0.00  0.00 17.52  1.40  97.5   5.6 107.9  1.00  1.00  0.98
   15 186   109   109  25.5  80.1  25.5  0.00  0.00  0.02  0.00  0.05  0.00  0.00  0.04  0.00  0.37  0.08  0.00  0.00  0.00 17.29  1.20  94.5   5.5 106.7  0.99  1.00  0.93
   15 187   110   110  23.2  80.4  23.2  0.00  0.00  0.02  0.00  0.00  0.21  0.01  0.04  0.00  0.21  0.40  0.01  0.43  0.01 21.44  0.79  93.3   4.4 106.0  0.94  0.99  0.89
   15 188   111   111  25.1  80.8  25.1  0.00  0.00  0.02  0.00  0.01  0.52  0.08  0.04  0.00  0.34  0.63  0.08  1.00  0.08 17.00  0.48  96.3   5.7 105.7  0.86  0.97  0.86
   15 189   112   112  17.4  81.0  17.4  0.00  0.00  0.02  0.00  0.00  0.00  0.19  0.04  0.00  0.00  0.00  0.19  0.00  0.19 33.23  3.12 101.3   3.0 105.6  0.87  0.98  0.87
   15 190   113   113  13.9  81.2  13.9  0.00  0.00  0.02  0.00  0.00  0.00  0.17  0.04  0.00  0.00  0.00  0.17  0.00  0.17 29.01  2.91  98.9   3.4 103.2  0.89  0.98  0.88
   15 191   114   114  14.9  81.4  14.9  0.00  0.00  0.02  0.00  0.00  0.00  0.15  0.04  0.00  0.00  0.00  0.15  0.00  0.15 22.76  2.31  96.2   4.2 101.3  0.90  0.99  0.88
   15 192   115   115  18.3  81.7  18.3  0.00  0.00  0.02  0.00  0.00  0.55  0.13  0.04  0.00  0.00  0.65  0.13  1.00  0.13 18.14  0.45  95.6   5.3  99.1  0.85  0.98  0.86
   15 193   116   116  20.5  82.0  20.5  0.00  0.00  0.02  0.00  0.00  0.54  0.20  0.04  0.00  0.03  0.65  0.20  1.00  0.20 20.87  0.46  95.4   4.6  98.8  0.78  0.96  0.83
   15 194   117   117  18.4  82.3  18.4  0.00  0.00  0.02  0.00  0.00  0.25  0.29  0.04  0.00  0.00  0.42  0.29  0.49  0.29 37.28  0.75  95.3   2.6  98.5  0.72  0.95  0.82
   15 195   118   118  20.6  82.6  20.6  0.00  0.00  0.02  0.00  0.00  0.51  0.37  0.04  0.00  0.04  0.62  0.37  1.00  0.37 25.02  0.49  95.4   3.8  98.4  0.63  0.94  0.80
   15 196   119   119  21.7  82.9  21.7  0.00  0.00  0.02  0.00  0.00  0.58  0.49  0.04  0.00  0.11  0.68  0.49  1.00  0.49 23.72  0.42  95.8   4.0  98.4  0.57  0.92  0.79
   15 197   120   120  22.4  83.2  22.4  0.00  0.00  0.02  0.00  0.00  0.68  0.58  0.04  0.00  0.16  0.75  0.58  1.00  0.58 19.03  0.32  96.4   5.1  98.4  0.51  0.91  0.78
   15 198   121   121  24.6  83.5  24.6  0.00  0.00  0.02  0.00  0.00  0.71  0.66  0.04  0.00  0.31  0.78  0.66  1.00  0.66 18.00  0.29  97.2   5.4  98.5  0.47  0.91  0.78
   15 199   122   122  22.0  83.8  22.0  0.00  0.00  0.02  0.00  0.00  0.70  0.72  0.04  0.00  0.13  0.77  0.72  1.00  0.72 22.37  0.30  98.0   4.4  98.7  0.44  0.91  0.77
   15 200   123   123  22.4  84.2  22.4  0.00  0.00  0.02  0.00  0.00  0.73  0.77  0.04  0.00  0.16  0.79  0.77  1.00  0.77 24.28  0.27  99.1   4.1  98.9  0.41  0.90  0.77
   15 201   124   124  23.3  84.5  23.3  0.00  0.00  0.02  0.00  0.00  0.73  0.81  0.04  0.00  0.22  0.79  0.81  1.00  0.81 27.49  0.27 100.4   3.7  99.1  0.39  0.90  0.76
   15 202   125   125  24.2  84.8  24.2  0.00  0.00  0.02  0.00  0.00  0.80  0.85  0.04  0.00  0.28  0.85  0.85  1.00  0.85 22.79  0.20 101.9   4.5  99.3  0.37  0.91  0.76
   15 203   126   126  25.0  85.2  25.0  0.00  0.00  0.02  0.00  0.00  0.84  0.87  0.04  0.00  0.33  0.87  0.87  1.00  0.87 21.15  0.16 103.5   4.9  99.6  0.36  0.91  0.76
   15 204   127   127  21.4  85.5  21.4  0.00  0.00  0.02  0.00  0.00  0.70  0.90  0.04  0.00  0.09  0.77  0.90  1.00  0.90 41.89  0.30 104.9   2.5  99.8  0.35  0.91  0.76
   15 205   128   128  22.0  85.8  22.0  0.00  0.00  0.02  0.00  0.00  0.82  0.91  0.04  0.00  0.13  0.86  0.91  1.00  0.91 27.78  0.18 106.4   3.8 100.1  0.35  0.92  0.76
   15 206   129   129  18.8  86.1  18.8  0.00  0.00  0.02  0.00  0.00  0.81  0.93  0.04  0.00  0.00  0.86  0.93  1.00  0.93 33.07  0.19 107.6   3.3 100.4  0.34  0.92  0.76
   15 207   130   130  15.6  86.3  15.5  0.00  0.00  0.02  0.00  0.00  0.82  0.94  0.04  0.00  0.00  0.86  0.94  1.00  0.94 33.17  0.18 108.6   3.3 100.6  0.34  0.92  0.75
   15 208   131   131  18.3  86.6  18.3  0.00  0.00  0.02  0.00  0.00  0.81  0.95  0.04  0.00  0.00  0.85  0.95  1.00  0.95 39.54  0.19 112.7   2.8 100.9  0.34  0.93  0.75
   15 209   132   132  17.5  86.8  17.5  0.00  0.00  0.02  0.00  0.00  0.00  0.96  0.04  0.00  0.00  0.00  0.96  0.00  0.96 41.59  2.83 112.4   2.7 101.1  0.34  0.93  0.75
   15 210   133   133  15.0  87.0  15.0  0.00  0.00  0.02  0.00  0.00  0.66  0.97  0.04  0.00  0.00  0.74  0.97  1.00  0.97 44.55  0.34 113.5   2.5  98.6  0.34  0.93  0.75
   15 211   134   134  14.6  87.2  14.6  0.00  0.00  0.02  0.00  0.00  0.65  0.97  0.04  0.00  0.00  0.73  0.97  1.00  0.97 40.14  0.35 113.5   2.8  98.4  0.34  0.94  0.75
   15 212   135   135  16.4  87.5  16.4  0.00  0.00  0.02  0.00  0.00  0.80  0.98  0.04  0.00  0.00  0.85  0.98  1.00  0.98 41.18  0.20 114.5   2.8  98.2  0.34  0.94  0.75
   15 213   136   136  17.0  87.7  17.0  0.00  0.00  0.02  0.00  0.00  0.76  0.98  0.04  0.00  0.00  0.82  0.98  1.00  0.98 60.80  0.24 115.7   1.9  98.3  0.35  0.95  0.75
   15 214   137   137  19.0  88.0  19.0  0.00  0.00  0.02  0.00  0.00  0.82  0.99  0.04  0.00  0.00  0.86  0.99  1.00  0.99 48.55  0.18 117.1   2.4  98.5  0.35  0.95  0.75
   15 215   138   138  19.8  88.3  19.8  0.00  0.00  0.02  0.00  0.00  0.85  0.99  0.04  0.00  0.00  0.88  0.99  1.00  0.99 43.44  0.15 118.7   2.7  98.7  0.36  0.96  0.75
   15 216   139   139  21.9  88.6  21.9  0.00  0.00  0.02  0.00  0.00  0.86  0.99  0.04  0.00  0.12  0.89  0.99  1.00  0.99 42.64  0.14 120.5   2.8  98.9  0.36  0.97  0.75
   15 217   140   140  21.8  88.9  21.8  0.00  0.00  0.02  0.00  0.00  0.83  0.99  0.04  0.00  0.12  0.87  0.99  1.00  0.99 52.31  0.17 122.2   2.3  99.1  0.37  0.97  0.75
   15 218   141   141  23.4  89.2  23.4  0.00  0.00  0.02  0.00  0.00  0.84  0.99  0.04  0.00  0.23  0.88  0.99  1.00  0.99 51.05  0.16 124.2   2.4  99.4  0.38  0.98  0.75
   15 219   142   142  24.8  89.6  24.8  0.00  0.00  0.02  0.00  0.00  0.84  1.00  0.04  0.00  0.32  0.87  1.00  1.00  1.00 56.46  0.16 126.3   2.2  99.7  0.39  0.99  0.75
   15 220   143   143  25.2  89.9  25.2  0.00  0.00  0.02  0.00  0.02  0.81  1.00  0.04  0.00  0.34  0.85  1.00  1.00  1.00 69.87  0.19 128.4   1.8 100.0  0.40  1.00  0.75
   15 221   144   144  24.7  91.1  24.7  0.00  0.00  0.02  0.00  0.00  0.75  1.00  0.04  0.00  0.31  0.81  1.00  1.00  1.00 93.40  0.25 130.6   1.4 100.3  0.41  1.00  0.75

*DSSAT Cropping System Model Ver. 4.8.5.000 -release  OCT 24, 2025 14:14:59

*RUN   3        : 3                         CSCER048 TUDU1501    3
 MODEL          : CSCER048 - Wheat
 EXPERIMENT     : TUDU1501 WH
 DATA PATH      :
 TREATMENT  3   : 3                         CSCER048
  
!........DATES.......  TEMP STAGE  ...PHENOLOGY....  .......PHOTOSYNTHESIS.......  .....GROWTH.....  ..TILLERS. WATER STRESS DETERMINANTS N STRESS DETERMINANTS       
@YEAR DOY   DAS   DAP TMEAN  GSTD    DU VRNFD DYLFD TFGEM  WFGE  TFPD  WFPD  NFPD CO2FD RSFPD  TFGD  WFGD  NFGD  WFTD  NFTD WAVRD WUPRD  SWXD  EOPD  SNXD LN%RD SN%RD RN%RD      
   15  77     0     0   7.7   0.0   7.6  1.00  0.00  0.73  0.00  0.00  0.00  0.00  0.04  0.00  0.24  0.00  0.00  0.00  0.00 99.90  1.00   3.0   0.0  31.3  0.00  0.00  0.00
   15  78     1     1   6.3   2.6   0.0  1.00  0.00  0.79  0.00  0.00  0.00  0.00  0.04  0.00  0.37  0.00  0.00  0.00  0.00 99.90  1.00   2.5   0.0  31.3  0.00  0.00  0.00
   15  79     2     2   5.4   4.8   0.0  1.00  0.00  0.83  0.00  0.00  0.00  0.00  0.04  0.00  0.46  0.00  0.00  0.00  0.00 99.90  1.00   2.1   0.0  31.3  0.00  0.00  0.00
   15  80     3     3   5.3   6.0   0.0  1.00  0.00  0.83  0.00  0.00  0.00  0.00  0.04  0.00  0.47  0.00  0.00  0.00  0.00 99.90  1.00   2.9   0.0  31.3  0.00  0.00  0.00
   15  81     4     4   4.1   6.8   0.0  0.95  0.00  0.87  0.00  0.00  0.00  0.00  0.04  0.00  0.59  0.00  0.00  0.00  0.00 99.90  1.00   3.5   0.0  31.4  0.00  0.00  1.00
   15  82     5     5   2.8   7.2   0.1  0.90  0.00  0.93  0.00  0.00  0.00  0.00  0.04  0.00  0.73  0.00  0.00  0.00  0.00 99.90  1.00   3.3   0.0  31.4  0.00  0.00  1.00
   15  83     6     6   6.6   8.6   0.7  0.85  0.00  0.78  0.00  0.00  0.00  0.00  0.04  0.00  0.34  0.00  0.00  0.00  0.00 99.90  1.00   3.5   0.0  31.4  0.00  0.00  1.00
   15  84     7     7   8.9  10.0   1.3  0.81  0.00  0.68  0.00  0.00  0.00  0.00  0.04  0.00  0.11  0.00  0.00  0.00  0.00 99.90  1.00   4.3   0.0  31.4  0.00  0.00  1.00
   15  85     8     8   6.3  10.1   0.7  0.76  0.41  0.79  0.00  0.00  0.00  0.00  0.04  0.00  0.37  0.00  0.00  0.00  0.00 99.90  1.00   5.5   0.0  31.4  1.00  0.00  1.00
   15  86     9     9   6.5  10.2   0.9  0.71  0.40  0.78  0.00  0.00  0.00  0.00  0.04  0.00  0.35  0.00  0.00  0.00  0.00 99.90  4.30   7.0   0.0  31.4  1.00  0.01  1.00
   15  87    10    10   6.4  10.3   1.1  0.66  0.40  0.78  0.00  0.00  0.00  0.00  0.04  0.00  0.36  0.00  0.00  0.00  0.00 99.90  1.73   7.4   0.0  31.4  1.00  0.01  1.00
   15  88    11    11   9.5  10.5   2.0  0.63  0.39  0.66  0.00  0.00  0.00  0.00  0.04  0.00  0.05  0.00  0.00  0.00  0.00 99.90  1.71   9.1   0.1  31.4  1.00  0.01  1.00
   15  89    12    12   6.7  10.6   1.5  0.58  0.38  0.77  0.00  0.00  0.00  0.00  0.04  0.00  0.33  0.00  0.00  0.00  0.00 99.90  1.33  15.7   0.1  31.4  1.00  0.01  1.00
   15  90    13    13   7.8  10.7   2.0  0.53  0.37  0.73  0.00  0.00  0.13  0.00  0.04  0.00  0.23  0.33  0.00  0.26  0.00 99.90  0.87  18.1   0.2  31.4  0.91  0.02  0.99
   15  91    14    14   3.3  10.8   1.0  0.48  0.37  0.91  0.00  0.33  0.00  0.10  0.04  0.00  0.67  0.00  0.10  0.00  0.10 99.90  1.58  19.8   0.1  31.4  0.90  0.07  0.96
   15  92    15    15   3.1  10.8   1.0  0.43  0.36  0.92  0.00  0.38  0.00  0.11  0.04  0.00  0.69  0.00  0.11  0.00  0.11 99.90  1.81  21.8   0.1  31.3  0.90  0.13  0.94
   15  93    16    16   4.2  10.9   1.5  0.38  0.35  0.87  0.00  0.17  0.00  0.12  0.04  0.00  0.58  0.00  0.12  0.00  0.12 99.90  1.34  18.9   0.2  31.2  0.87  0.16  0.91
   15  94    17    17   3.6  11.0   1.5  0.33  0.35  0.90  0.00  0.28  0.00  0.15  0.04  0.00  0.64  0.00  0.15  0.00  0.15 99.90  2.86  21.8   0.1  31.1  0.87  0.21  0.89
   15  95    18    18   2.5  11.0   1.1  0.28  0.34  0.94  0.00  0.51  0.00  0.15  0.04  0.00  0.75  0.00  0.15  0.00  0.15 99.90  1.86  19.4   0.2  31.0  0.88  0.28  0.91
   15  96    19    19   1.9  11.0   0.9  0.23  0.33  0.96  0.00  0.62  0.00  0.14  0.04  0.00  0.81  0.00  0.14  0.00  0.14 99.90  2.06  18.7   0.2  30.9  0.89  0.33  0.92
   15  97    20    20   2.9  11.1   1.5  0.18  0.32  0.92  0.00  0.42  0.00  0.13  0.04  0.00  0.71  0.00  0.13  0.00  0.13 92.69  1.78  18.2   0.2  30.9  0.89  0.39  0.92
   15  98    21    21   6.6  11.2   3.7  0.13  0.32  0.78  0.00  0.00  0.00  0.12  0.04  0.00  0.34  0.00  0.12  0.00  0.12 74.05  1.58  18.1   0.2  30.8  0.82  0.35  0.90
   15  99    22    22  10.2  11.4   6.1  0.10  0.31  0.63  0.00  0.00  0.00  0.20  0.04  0.00  0.00  0.00  0.20  0.00  0.20 57.44  1.42  18.5   0.3  30.7  0.68  0.28  0.87
   15 100    23    23  11.4  11.5   7.1  0.08  0.30  0.59  0.00  0.00  0.00  0.36  0.04  0.00  0.00  0.09  0.36  0.00  0.36 42.06  1.19  19.0   0.5  30.6  0.60  0.23  0.86
   15 101    24    24  11.7  11.7   7.6  0.06  0.30  0.57  0.00  0.00  0.00  0.46  0.04  0.00  0.00  0.00  0.46  0.00  0.46 46.71  1.49  19.7   0.4  30.5  0.54  0.20  0.84
   15 102    25    25  12.3  11.9   8.2  0.04  0.29  0.55  0.00  0.00  0.00  0.52  0.04  0.00  0.00  0.23  0.52  0.00  0.52 41.99  1.00  20.5   0.5  30.5  0.50  0.18  0.84
   15 103    26    26  11.9  12.1   8.1  0.02  0.28  0.57  0.00  0.00  0.07  0.56  0.04  0.00  0.00  0.29  0.56  0.15  0.56 40.21  0.93  21.3   0.5  30.4  0.49  0.18  0.83
   15 104    27    27  12.1  12.2   8.5  0.00  0.28  0.56  0.00  0.00  0.07  0.58  0.04  0.00  0.00  0.28  0.58  0.13  0.58 38.98  0.93  22.1   0.6  30.4  0.48  0.18  0.82
   15 105    28    28  14.4  12.3  10.4  0.00  0.27  0.46  0.00  0.00  0.20  0.59  0.04  0.00  0.00  0.39  0.59  0.41  0.59 31.90  0.80  23.3   0.7  30.4  0.46  0.18  0.82
   15 106    29    29  15.7  12.4  11.5  0.00  0.27  0.41  0.00  0.00  0.01  0.61  0.04  0.00  0.00  0.24  0.61  0.02  0.61 38.65  0.99  24.8   0.6  30.5  0.45  0.17  0.81
   15 107    30    30  10.9  12.5   8.0  0.00  0.26  0.61  0.00  0.00  0.00  0.62  0.04  0.00  0.00  0.05  0.62  0.00  0.62 83.01  1.24  46.7   0.6  30.5  0.46  0.20  0.81
   15 108    31    31   5.5  12.6   4.1  0.00  0.25  0.82  0.00  0.00  0.00  0.62  0.04  0.00  0.45  0.00  0.62  0.00  0.62 89.20  2.49  41.8   0.5  30.5  0.49  0.26  0.83
   15 109    32    32   6.4  12.6   4.8  0.00  0.25  0.78  0.00  0.00  0.00  0.58  0.04  0.00  0.36  0.00  0.58  0.00  0.58 69.49  2.17  39.5   0.6  30.3  0.52  0.32  0.84
   15 110    33    33   8.1  12.7   6.2  0.00  0.24  0.71  0.00  0.00  0.00  0.55  0.04  0.00  0.19  0.00  0.55  0.00  0.55 56.24  1.92  38.8   0.7  30.2  0.54  0.37  0.84
   15 111    34    34  10.7  12.8   8.1  0.00  0.24  0.61  0.00  0.00  0.00  0.52  0.04  0.00  0.00  0.00  0.52  0.00  0.52 49.00  1.83  38.5   0.8  30.0  0.55  0.39  0.83
   15 112    35    35  11.2  12.9   8.6  0.00  0.23  0.59  0.00  0.00  0.00  0.52  0.04  0.00  0.00  0.00  0.52  0.00  0.52 47.81  1.94  38.3   0.8  29.9  0.55  0.40  0.82
   15 113    36    36   6.1  12.9   4.7  0.00  0.22  0.80  0.00  0.00  0.00  0.51  0.04  0.00  0.39  0.00  0.51  0.00  0.51 62.24  2.78  37.8   0.6  29.7  0.57  0.43  0.82
   15 114    37    37   8.8  13.0   6.8  0.00  0.22  0.69  0.00  0.00  0.00  0.49  0.04  0.00  0.12  0.00  0.49  0.00  0.49 44.83  1.72  37.4   0.8  29.6  0.57  0.44  0.81
   15 115    38    38  11.4  13.1   9.0  0.00  0.21  0.58  0.00  0.00  0.00  0.49  0.04  0.00  0.00  0.00  0.49  0.00  0.49 45.55  1.69  38.9   0.9  29.5  0.57  0.43  0.81
   15 116    39    39  15.1  13.2  11.9  0.00  0.21  0.44  0.00  0.00  0.00  0.49  0.04  0.00  0.00  0.00  0.49  0.00  0.49 55.32  2.46  40.9   0.7  29.4  0.56  0.42  0.81
   15 117    40    40  14.5  13.3  11.6  0.00  0.20  0.46  0.00  0.00  0.00  0.50  0.04  0.00  0.00  0.00  0.50  0.00  0.50 46.35  2.18  46.6   1.0  29.4  0.55  0.41  0.81
   15 118    41    41   8.3  13.4   6.7  0.00  0.20  0.71  0.00  0.00  0.00  0.51  0.04  0.00  0.17  0.00  0.51  0.00  0.51 85.91  3.84  52.4   0.6  29.3  0.57  0.44  0.80
   15 119    42    42   7.0  13.5   5.6  0.00  0.19  0.76  0.00  0.00  0.00  0.49  0.04  0.00  0.30  0.00  0.49  0.00  0.49 64.98  3.12  51.0   0.8  29.2  0.59  0.48  0.81
   15 120    43    43  10.4  13.5   8.4  0.00  0.19  0.63  0.00  0.00  0.00  0.47  0.04  0.00  0.00  0.00  0.47  0.00  0.47 65.67  3.32  51.1   0.8  29.0  0.60  0.51  0.81
   15 121    44    44   8.6  13.6   7.1  0.00  0.18  0.69  0.00  0.00  0.00  0.46  0.04  0.00  0.14  0.00  0.46  0.00  0.46 99.90  8.37  75.6   0.3  28.9  0.61  0.53  0.80
   15 122    45    45  10.5  13.7   8.6  0.00  0.18  0.62  0.00  0.00  0.00  0.44  0.04  0.00  0.00  0.00  0.44  0.00  0.44 99.90  4.29  72.7   0.6  28.8  0.61  0.52  0.80
   15 123    46    46  13.2  13.8  11.0  0.00  0.17  0.51  0.00  0.00  0.00  0.45  0.04  0.00  0.00  0.00  0.45  0.00  0.45 99.90  4.09  79.5   0.7  28.7  0.60  0.50  0.80
   15 124    47    47  17.5  14.0  14.5  0.00  0.17  0.34  0.00  0.00  0.00  0.46  0.04  0.00  0.00  0.00  0.46  0.00  0.46 83.12  3.58  69.7   0.8  28.2  0.59  0.48  0.80
   15 125    48    48  19.4  14.1  16.2  0.00  0.16  0.26  0.00  0.00  0.00  0.47  0.04  0.00  0.00  0.00  0.47  0.00  0.47 54.45  2.41  70.6   1.3  28.2  0.57  0.44  0.80
   15 126    49    49  11.6  14.2   9.7  0.00  0.16  0.58  0.00  0.00  0.00  0.50  0.04  0.00  0.00  0.00  0.50  0.00  0.50 99.90  4.25  89.5   0.8  28.2  0.56  0.43  0.80
   15 127    50    50  13.0  14.3  11.0  0.00  0.15  0.52  0.00  0.00  0.00  0.50  0.04  0.00  0.00  0.00  0.50  0.00  0.50 73.01  3.24  76.9   1.1  27.7  0.56  0.44  0.80
   15 128    51    51  15.5  14.5  13.2  0.00  0.15  0.42  0.00  0.00  0.00  0.50  0.04  0.00  0.00  0.00  0.50  0.00  0.50 54.60  2.74  71.2   1.3  27.6  0.56  0.44  0.80
   15 129    52    52  14.2  14.6  12.1  0.00  0.15  0.47  0.00  0.00  0.00  0.50  0.04  0.00  0.00  0.00  0.50  0.00  0.50 83.99  4.20  75.0   0.9  27.7  0.56  0.44  0.79
   15 130    53    53  13.2  14.7  11.3  0.00  0.14  0.51  0.00  0.00  0.00  0.51  0.04  0.00  0.00  0.00  0.51  0.00  0.51 62.01  3.31  72.6   1.2  27.9  0.56  0.46  0.79
   15 131    54    54  13.7  14.8  11.8  0.00  0.14  0.49  0.00  0.00  0.00  0.50  0.04  0.00  0.00  0.00  0.50  0.00  0.50 49.69  2.84  70.7   1.4  28.0  0.56  0.45  0.79
   15 132    55    55  18.0  14.9  15.5  0.00  0.13  0.32  0.00  0.00  0.00  0.51  0.04  0.00  0.00  0.00  0.51  0.00  0.51 41.08  2.47  70.4   1.7  28.2  0.56  0.46  0.79
   15 133    56    56  17.8  15.1  15.4  0.00  0.13  0.33  0.00  0.00  0.00  0.51  0.04  0.00  0.00  0.00  0.51  0.00  0.51 66.70  3.91  75.9   1.1  28.3  0.55  0.46  0.79
   15 134    57    57  15.0  15.2  13.1  0.00  0.13  0.44  0.00  0.00  0.00  0.52  0.04  0.00  0.00  0.00  0.52  0.00  0.52 73.39  4.45  75.9   1.0  28.5  0.53  0.45  0.79
   15 135    58    58  11.4  15.3  10.0  0.00  0.12  0.58  0.00  0.00  0.00  0.54  0.04  0.00  0.00  0.00  0.54  0.00  0.54 75.65  4.76  75.2   1.0  28.6  0.53  0.46  0.79
   15 136    59    59  12.8  15.4  11.2  0.00  0.12  0.53  0.00  0.00  0.00  0.54  0.04  0.00  0.00  0.00  0.54  0.00  0.54 51.05  3.35  74.1   1.5  28.8  0.53  0.46  0.79
   15 137    60    60  14.1  15.5  12.5  0.00  0.12  0.47  0.00  0.00  0.00  0.54  0.04  0.00  0.00  0.00  0.54  0.00  0.54 69.16  4.68  74.7   1.1  28.9  0.53  0.48  0.79
   15 138    61    61  15.4  15.7  13.7  0.00  0.11  0.42  0.00  0.00  0.00  0.54  0.04  0.00  0.00  0.00  0.54  0.00  0.54 42.70  3.00  73.8   1.7  29.0  0.52  0.47  0.79
   15 139    62    62  13.9  15.8  12.4  0.00  0.11  0.48  0.00  0.00  0.00  0.55  0.04  0.00  0.00  0.00  0.55  0.00  0.55 75.13  4.56  88.9   1.2  29.1  0.53  0.48  0.79
   15 140    63    63   8.4  15.9   8.4  0.00  0.00  0.71  0.00  0.00  0.00  0.54  0.04  0.00  0.16  0.00  0.54  0.00  0.54 99.90  8.18 107.1   0.7  29.1  0.54  0.50  0.79
   15 141    64    64   9.8  15.9   9.8  0.00  0.00  0.65  0.00  0.00  0.00  0.53  0.04  0.00  0.02  0.00  0.53  0.00  0.53 99.90  6.06 106.5   0.9  29.1  0.54  0.48  0.79
   15 142    65    65   9.9  16.0   9.9  0.00  0.00  0.65  0.00  0.00  0.00  0.53  0.04  0.00  0.01  0.00  0.53  0.00  0.53 70.94  4.21  97.4   1.4  29.2  0.53  0.46  0.79
   15 143    66    66  11.7  16.1  11.7  0.00  0.00  0.57  0.00  0.00  0.00  0.54  0.04  0.00  0.00  0.00  0.54  0.00  0.54 71.65  4.33  98.7   1.4  29.2  0.51  0.44  0.79
   15 144    67    67  12.1  16.2  12.1  0.00  0.00  0.55  0.00  0.00  0.00  0.56  0.04  0.00  0.00  0.00  0.56  0.00  0.56 79.68  4.98  98.3   1.2  29.2  0.50  0.42  0.79
   15 145    68    68  14.6  30.2  14.5  0.00  0.00  0.46  0.00  0.00  0.00  0.58  0.04  0.00  0.00  0.00  0.58  0.00  0.58 62.64  4.04  97.6   1.6  29.3  0.50  0.41  0.79
   15 146    69    69  11.6  30.7  11.6  0.00  0.00  0.58  0.00  0.00  0.00  0.59  0.04  0.00  0.00  0.00  0.59  0.00  0.59 73.43  4.93  96.2   1.3  29.2  0.49  0.40  0.79
   15 147    70    70   9.2  31.1   9.2  0.00  0.00  0.67  0.00  0.00  0.00  0.60  0.04  0.00  0.07  0.00  0.60  0.00  0.60 63.40  4.44  94.4   1.5  29.2  0.49  0.40  0.79
   15 148    71    71  11.9  31.6  11.9  0.00  0.00  0.56  0.00  0.00  0.00  0.59  0.04  0.00  0.00  0.00  0.59  0.00  0.59 42.07  3.09  92.6   2.2  29.2  0.48  0.38  0.79
   15 149    72    72  15.6  32.3  15.6  0.00  0.00  0.42  0.00  0.00  0.00  0.60  0.04  0.00  0.00  0.00  0.60  0.00  0.60 38.62  2.98  91.2   2.4  29.2  0.47  0.36  0.79
   15 150    73    73  14.9  33.0  14.9  0.00  0.00  0.44  0.00  0.00  0.00  0.62  0.04  0.00  0.00  0.00  0.62  0.00  0.62 58.71  4.71  90.7   1.5  29.3  0.48  0.37  0.79
   15 151    74    74  15.4  33.7  15.4  0.00  0.00  0.42  0.00  0.00  0.00  0.60  0.04  0.00  0.00  0.00  0.60  0.00  0.60 43.04  3.17  89.7   2.1  29.1  0.48  0.36  0.79
   15 152    75    75  19.0  34.5  19.0  0.00  0.00  0.28  0.00  0.00  0.00  0.61  0.04  0.00  0.00  0.00  0.61  0.00  0.61 34.99  2.55  88.9   2.5  29.3  0.45  0.35  0.79
   15 153    76    76  19.8  35.4  19.8  0.00  0.00  0.25  0.00  0.00  0.00  0.64  0.04  0.00  0.00  0.00  0.64  0.00  0.64 35.91  2.69  88.2   2.5  29.5  0.44  0.34  0.79
   15 154    77    77  20.5  36.3  20.5  0.00  0.00  0.22  0.00  0.00  0.00  0.65  0.04  0.00  0.03  0.00  0.65  0.00  0.65 29.01  2.25  87.0   3.0  29.6  0.44  0.33  0.79
   15 155    78    78  19.7  37.2  19.7  0.00  0.00  0.25  0.00  0.00  0.00  0.67  0.04  0.00  0.00  0.00  0.67  0.00  0.67 29.98  2.40  86.0   2.9  29.8  0.43  0.33  0.79
   15 156    79    79  21.8  38.1  21.8  0.00  0.00  0.17  0.00  0.00  0.00  0.68  0.04  0.00  0.12  0.00  0.68  0.00  0.68 29.50  2.01  85.5   2.9  30.0  0.43  0.33  0.80
   15 157    80    80  21.8  39.1  21.8  0.00  0.00  0.17  0.00  0.00  0.00  0.68  0.04  0.00  0.12  0.00  0.68  0.00  0.68 25.03  1.62  87.1   3.5  30.2  0.43  0.32  0.80
   15 158    81    81  21.5  40.0  21.5  0.00  0.00  0.18  0.00  0.00  0.00  0.68  0.04  0.00  0.10  0.00  0.68  0.00  0.68 30.64  2.49  86.1   2.8  30.5  0.41  0.32  0.80
   15 159    82    82  16.1  40.7  16.1  0.00  0.00  0.39  0.00  0.00  0.00  0.70  0.04  0.00  0.00  0.00  0.70  0.00  0.70 45.81  2.19 101.3   2.2  30.7  0.44  0.36  0.80
   15 160    83    83  12.3  41.2  12.3  0.00  0.00  0.55  0.00  0.00  0.00  0.68  0.04  0.00  0.00  0.00  0.68  0.00  0.68 96.38  7.36 101.8   1.1  30.9  0.46  0.42  0.81
   15 161    84    84  14.7  41.8  14.7  0.00  0.00  0.45  0.00  0.00  0.00  0.64  0.04  0.00  0.00  0.00  0.64  0.00  0.64 50.84  3.92 100.3   2.0  31.0  0.49  0.48  0.82
   15 162    85    85  18.3  42.6  18.3  0.00  0.00  0.31  0.00  0.00  0.00  0.61  0.04  0.00  0.00  0.00  0.61  0.00  0.61 43.23  3.43  98.4   2.3  31.0  0.53  0.56  0.83
   15 163    86    86  20.9  43.5  20.9  0.00  0.00  0.20  0.00  0.00  0.00  0.57  0.04  0.00  0.06  0.00  0.57  0.00  0.57 28.78  2.33  96.2   3.3  30.8  0.55  0.57  0.83
   15 164    87    87  20.1  44.3  20.1  0.00  0.00  0.24  0.00  0.00  0.00  0.55  0.04  0.00  0.01  0.00  0.55  0.00  0.55 38.73  2.99 102.5   2.6  31.0  0.57  0.60  0.83
   15 165    88    88  20.1  45.1  20.1  0.00  0.00  0.24  0.00  0.00  0.00  0.52  0.04  0.00  0.01  0.00  0.52  0.00  0.52 47.95  3.18 120.1   2.5  31.1  0.59  0.60  0.83
   15 166    89    89  15.1  45.8  15.1  0.00  0.00  0.44  0.00  0.00  0.00  0.49  0.04  0.00  0.00  0.00  0.49  0.00  0.49 99.90  8.30 139.3   1.2  31.4  0.62  0.64  0.84
   15 167    90    90  15.2  46.4  15.2  0.00  0.00  0.43  0.00  0.00  0.00  0.46  0.04  0.00  0.00  0.00  0.46  0.00  0.46 69.23  5.24 137.4   2.0  31.5  0.65  0.69  0.85
   15 168    91    91  14.8  47.0  14.8  0.00  0.00  0.45  0.00  0.00  0.00  0.43  0.04  0.00  0.00  0.00  0.43  0.00  0.43 61.97  4.86 135.0   2.2  31.6  0.67  0.72  0.85
   15 169    92    92  13.2  47.6  13.2  0.00  0.00  0.51  0.00  0.00  0.00  0.40  0.04  0.00  0.00  0.00  0.40  0.00  0.40 75.89  5.66 144.8   1.9  31.7  0.70  0.75  0.86
   15 170    93    93  13.2  48.1  13.2  0.00  0.00  0.51  0.00  0.00  0.00  0.37  0.04  0.00  0.00  0.00  0.37  0.00  0.37 98.74  7.56 143.5   1.5  31.7  0.72  0.78  0.87
   15 171    94    94  12.2  48.6  12.2  0.00  0.00  0.55  0.00  0.00  0.00  0.34  0.04  0.00  0.00  0.00  0.34  0.00  0.34 90.87  7.09 142.6   1.6  31.6  0.74  0.82  0.88
   15 172    95    95  13.6  49.2  13.6  0.00  0.00  0.50  0.00  0.00  0.00  0.31  0.04  0.00  0.00  0.00  0.31  0.00  0.31 73.01  5.85 141.1   1.9  31.6  0.77  0.86  0.89
   15 173    96    96  16.2  49.9  16.2  0.00  0.00  0.39  0.00  0.00  0.00  0.28  0.04  0.00  0.00  0.00  0.28  0.00  0.28 71.07  5.49 148.9   2.1  31.4  0.80  0.89  0.90
   15 174    97    97  13.1  51.7  13.1  0.00  0.00  0.51  0.00  0.00  0.00  0.25  0.04  0.00  0.00  0.00  0.25  0.00  0.25 85.41  6.67 149.8   1.8  31.3  0.81  0.90  0.90
   15 175    98    98  13.9  54.0  13.9  0.00  0.00  0.48  0.00  0.00  0.00  0.23  0.04  0.00  0.00  0.00  0.23  0.00  0.23 62.63  5.06 146.8   2.3  31.4  0.83  0.92  0.91
   15 176    99    99  13.8  56.3  13.9  0.00  0.00  0.49  0.00  0.00  0.00  0.21  0.04  0.00  0.00  0.00  0.21  0.00  0.21 54.65  4.61 143.4   2.6  31.3  0.84  0.94  0.92
   15 177   100   100  16.5  59.1  16.5  0.00  0.00  0.38  0.00  0.00  0.00  0.20  0.04  0.00  0.00  0.00  0.20  0.00  0.20 49.20  4.30 141.0   2.9  31.2  0.86  0.95  0.92
   15 178   101   101  18.4  65.3  18.4  0.00  0.00  0.31  0.00  0.00  0.00  0.18  0.04  0.00  0.00  0.00  0.18  0.00  0.18 64.01  5.71 140.5   2.2  31.1  0.87  0.97  0.93
   15 179   102   102  17.9  70.4  17.9  0.00  0.00  0.33  0.00  0.00  0.00  0.16  0.04  0.00  0.00  0.00  0.16  0.00  0.16 62.11  5.65 139.0   2.2  31.2  0.89  0.99  0.93
   15 180   103   103  18.9  71.6  18.9  0.00  0.00  0.29  0.00  0.00  0.00  0.14  0.04  0.00  0.00  0.00  0.14  0.00  0.14 52.83  4.90 137.4   2.6  31.3  0.90  1.00  0.94
   15 181   104   104  20.6  73.0  20.6  0.00  0.00  0.22  0.00  0.00  0.00  0.12  0.04  0.00  0.04  0.00  0.12  0.00  0.12 43.66  3.86 135.5   3.1  31.4  0.92  1.00  0.94
   15 182   105   105  21.0  74.3  21.0  0.00  0.00  0.20  0.00  0.00  0.00  0.10  0.04  0.00  0.07  0.00  0.10  0.00  0.10 45.76  3.88 134.0   2.9  31.7  0.93  1.00  0.95
   15 183   106   106  22.2  75.7  22.2  0.00  0.00  0.15  0.00  0.00  0.00  0.08  0.04  0.00  0.15  0.00  0.08  0.00  0.08 44.93  3.82 132.5   2.9  71.9  0.95  1.00  0.95
   15 184   107   107  23.0  77.2  23.0  0.00  0.00  0.12  0.00  0.00  0.00  0.06  0.04  0.00  0.20  0.00  0.06  0.00  0.06 40.10  3.44 130.9   3.3  71.8  0.96  1.00  0.93
   15 185   108   108  24.6  78.8  24.6  0.00  0.00  0.06  0.00  0.00  0.00  0.05  0.04  0.00  0.30  0.00  0.05  0.00  0.05 40.29  3.49 129.7   3.2  71.8  0.96  1.00  0.89
   15 186   109   109  25.5  80.1  25.5  0.00  0.00  0.02  0.00  0.05  0.00  0.05  0.04  0.00  0.37  0.00  0.05  0.00  0.05 40.94  3.14 128.8   3.1  72.0  0.92  1.00  0.86
   15 187   110   110  23.2  80.4  23.2  0.00  0.00  0.02  0.00  0.00  0.00  0.10  0.04  0.00  0.21  0.00  0.10  0.00  0.10 51.50  3.72 128.4   2.5  72.1  0.86  0.99  0.84
   15 188   111   111  25.1  80.8  25.1  0.00  0.00  0.02  0.00  0.01  0.00  0.18  0.04  0.00  0.34  0.00  0.18  0.00  0.18 40.47  2.79 131.3   3.2  72.4  0.78  0.97  0.82
   15 189   112   112  17.4  81.0  17.4  0.00  0.00  0.02  0.00  0.00  0.00  0.29  0.04  0.00  0.00  0.00  0.29  0.00  0.29 77.63  5.60 136.9   1.8  72.6  0.80  0.97  0.83
   15 190   113   113  13.9  81.2  13.9  0.00  0.00  0.02  0.00  0.00  0.00  0.26  0.04  0.00  0.00  0.00  0.26  0.00  0.26 67.80  5.79 134.6   2.0  72.0  0.82  0.98  0.84
   15 191   114   114  14.9  81.4  14.9  0.00  0.00  0.02  0.00  0.00  0.00  0.24  0.04  0.00  0.00  0.00  0.24  0.00  0.24 53.92  4.45 132.5   2.5  71.5  0.84  0.98  0.85
   15 192   115   115  18.3  81.7  18.3  0.00  0.00  0.02  0.00  0.00  0.00  0.22  0.04  0.00  0.00  0.00  0.22  0.00  0.22 42.65  3.17 130.3   3.1  71.0  0.85  0.99  0.86
   15 193   116   116  20.5  82.0  20.5  0.00  0.00  0.02  0.00  0.00  0.00  0.19  0.04  0.00  0.03  0.00  0.19  0.00  0.19 48.45  3.38 128.8   2.7  70.1  0.87  1.00  0.86
   15 194   117   117  18.4  82.3  18.4  0.00  0.00  0.02  0.00  0.00  0.00  0.17  0.04  0.00  0.00  0.00  0.17  0.00  0.17 86.71  5.29 129.3   1.5  69.0  0.89  1.00  0.86
   15 195   118   118  20.6  82.6  20.6  0.00  0.00  0.02  0.00  0.00  0.00  0.15  0.04  0.00  0.04  0.00  0.15  0.00  0.15 57.76  3.68 128.3   2.2  68.3  0.90  1.00  0.83
   15 196   119   119  21.7  82.9  21.7  0.00  0.00  0.02  0.00  0.00  0.00  0.14  0.04  0.00  0.11  0.00  0.14  0.00  0.14 53.96  2.78 127.4   2.4  67.6  0.86  0.99  0.82
   15 197   120   120  22.4  83.2  22.4  0.00  0.00  0.02  0.00  0.00  0.00  0.19  0.04  0.00  0.16  0.00  0.19  0.00  0.19 42.38  1.91 126.1   3.0  67.4  0.78  0.98  0.80
   15 198   121   121  24.6  83.5  24.6  0.00  0.00  0.02  0.00  0.00  0.00  0.29  0.04  0.00  0.31  0.00  0.29  0.00  0.29 39.12  1.60 124.7   3.2  67.4  0.69  0.96  0.79
   15 199   122   122  22.0  83.8  22.0  0.00  0.00  0.02  0.00  0.00  0.00  0.42  0.04  0.00  0.13  0.00  0.42  0.00  0.42 47.34  1.62 124.1   2.6  67.5  0.62  0.95  0.78
   15 200   123   123  22.4  84.2  22.4  0.00  0.00  0.02  0.00  0.00  0.00  0.53  0.04  0.00  0.16  0.00  0.53  0.00  0.53 49.94  1.50 123.8   2.5  67.7  0.56  0.94  0.77
   15 201   124   124  23.3  84.5  23.3  0.00  0.00  0.02  0.00  0.00  0.00  0.61  0.04  0.00  0.22  0.00  0.61  0.00  0.61 54.81  1.50 123.5   2.3  67.9  0.51  0.93  0.77
   15 202   125   125  24.2  84.8  24.2  0.00  0.00  0.02  0.00  0.00  0.00  0.68  0.04  0.00  0.28  0.12  0.68  0.00  0.68 44.49  1.14 122.9   2.8  68.2  0.47  0.93  0.76
   15 203   126   126  25.0  85.2  25.0  0.00  0.00  0.02  0.00  0.00  0.03  0.74  0.04  0.00  0.33  0.25  0.74  0.06  0.74 40.32  0.97 122.3   3.0  68.4  0.44  0.93  0.76
   15 204   127   127  21.4  85.5  21.4  0.00  0.00  0.02  0.00  0.00  0.00  0.78  0.04  0.00  0.09  0.00  0.78  0.00  0.78 79.03  1.79 123.0   1.6  68.7  0.42  0.93  0.76
   15 205   128   128  22.0  85.8  22.0  0.00  0.00  0.02  0.00  0.00  0.00  0.82  0.04  0.00  0.13  0.17  0.82  0.00  0.82 51.11  1.07 122.3   2.4  69.0  0.40  0.93  0.76
   15 206   129   129  18.8  86.1  18.8  0.00  0.00  0.02  0.00  0.00  0.00  0.85  0.04  0.00  0.00  0.20  0.85  0.00  0.85 59.69  1.04 121.9   2.0  69.3  0.39  0.93  0.75
   15 207   130   130  15.6  86.3  15.5  0.00  0.00  0.02  0.00  0.00  0.08  0.88  0.04  0.00  0.00  0.29  0.88  0.16  0.88 58.94  0.92 121.8   2.1  69.6  0.38  0.93  0.75
   15 208   131   131  18.3  86.6  18.3  0.00  0.00  0.02  0.00  0.00  0.03  0.90  0.04  0.00  0.00  0.25  0.90  0.05  0.90 68.81  0.97 124.7   1.8  69.9  0.37  0.93  0.75
   15 209   132   132  17.5  86.8  17.5  0.00  0.00  0.02  0.00  0.00  0.00  0.92  0.04  0.00  0.00  0.00  0.92  0.00  0.92 72.14  2.06 125.1   1.7  70.1  0.38  0.94  0.76
   15 210   133   133  15.0  87.0  15.0  0.00  0.00  0.02  0.00  0.00  0.00  0.90  0.04  0.00  0.00  0.00  0.90  0.00  0.90 76.66  2.12 125.2   1.6  69.3  0.40  0.94  0.76
   15 211   134   134  14.6  87.2  14.6  0.00  0.00  0.02  0.00  0.00  0.00  0.89  0.04  0.00  0.00  0.07  0.89  0.00  0.89 68.08  1.20 124.1   1.8  68.7  0.39  0.95  0.76
   15 212   135   135  16.4  87.5  16.4  0.00  0.00  0.02  0.00  0.00  0.31  0.91  0.04  0.00  0.00  0.47  0.91  0.63  0.91 69.16  0.69 123.9   1.8  68.3  0.38  0.95  0.76
   15 213   136   136  17.0  87.7  17.0  0.00  0.00  0.02  0.00  0.00  0.14  0.93  0.04  0.00  0.00  0.34  0.93  0.28  0.93 99.90  0.86 124.0   1.2  68.5  0.38  0.95  0.76
   15 214   137   137  19.0  88.0  19.0  0.00  0.00  0.02  0.00  0.00  0.40  0.94  0.04  0.00  0.00  0.54  0.94  0.79  0.94 79.68  0.60 124.8   1.6  68.6  0.38  0.96  0.75
   15 215   138   138  19.8  88.3  19.8  0.00  0.00  0.02  0.00  0.00  0.52  0.95  0.04  0.00  0.00  0.63  0.95  1.00  0.95 70.44  0.48 125.7   1.8  68.9  0.38  0.96  0.75
   15 216   139   139  21.9  88.6  21.9  0.00  0.00  0.02  0.00  0.00  0.57  0.96  0.04  0.00  0.12  0.67  0.96  1.00  0.96 69.43  0.43 126.9   1.8  69.1  0.38  0.97  0.75
   15 217   140   140  21.8  88.9  21.8  0.00  0.00  0.02  0.00  0.00  0.51  0.97  0.04  0.00  0.12  0.62  0.97  1.00  0.97 85.43  0.49 128.2   1.5  69.3  0.38  0.98  0.75
   15 218   141   141  23.4  89.2  23.4  0.00  0.00  0.02  0.00  0.00  0.56  0.97  0.04  0.00  0.23  0.66  0.97  1.00  0.97 83.50  0.44 129.7   1.6  69.6  0.39  0.98  0.75
   15 219   142   142  24.8  89.6  24.8  0.00  0.00  0.02  0.00  0.00  0.55  0.98  0.04  0.00  0.32  0.65  0.98  1.00  0.98 92.20  0.45 131.3   1.4  69.9  0.39  0.99  0.75
   15 220   143   143  25.2  89.9  25.2  0.00  0.00  0.02  0.00  0.02  0.48  0.99  0.04  0.00  0.34  0.60  0.99  0.96  0.99 99.90  0.52 133.1   1.2  70.2  0.40  1.00  0.75
   15 221   144   144  24.7  91.1  24.7  0.00  0.00  0.02  0.00  0.00  0.34  1.00  0.04  0.00  0.31  0.49  1.00  0.68  1.00 99.90  0.66 134.7   0.9  70.6  0.41  1.00  0.75

*DSSAT Cropping System Model Ver. 4.8.5.000 -release  OCT 24, 2025 14:14:59

*RUN   4        : 4                         CSCER048 TUDU1501    4
 MODEL          : CSCER048 - Wheat
 EXPERIMENT     : TUDU1501 WH
 DATA PATH      :
 TREATMENT  4   : 4                         CSCER048
  
!........DATES.......  TEMP STAGE  ...PHENOLOGY....  .......PHOTOSYNTHESIS.......  .....GROWTH.....  ..TILLERS. WATER STRESS DETERMINANTS N STRESS DETERMINANTS       
@YEAR DOY   DAS   DAP TMEAN  GSTD    DU VRNFD DYLFD TFGEM  WFGE  TFPD  WFPD  NFPD CO2FD RSFPD  TFGD  WFGD  NFGD  WFTD  NFTD WAVRD WUPRD  SWXD  EOPD  SNXD LN%RD SN%RD RN%RD      
   15  77     0     0   7.7   0.0   7.6  1.00  0.00  0.73  0.00  0.00  0.00  0.00  0.04  0.00  0.24  0.00  0.00  0.00  0.00 99.90  1.00   3.0   0.0  31.3  0.00  0.00  0.00
   15  78     1     1   6.3   2.6   0.0  1.00  0.00  0.79  0.00  0.00  0.00  0.00  0.04  0.00  0.37  0.00  0.00  0.00  0.00 99.90  1.00   2.5   0.0  31.3  0.00  0.00  0.00
   15  79     2     2   5.4   4.8   0.0  1.00  0.00  0.83  0.00  0.00  0.00  0.00  0.04  0.00  0.46  0.00  0.00  0.00  0.00 99.90  1.00   2.1   0.0  31.3  0.00  0.00  0.00
   15  80     3     3   5.3   6.0   0.0  1.00  0.00  0.83  0.00  0.00  0.00  0.00  0.04  0.00  0.47  0.00  0.00  0.00  0.00 99.90  1.00   2.9   0.0  31.3  0.00  0.00  0.00
   15  81     4     4   4.1   6.8   0.0  0.95  0.00  0.87  0.00  0.00  0.00  0.00  0.04  0.00  0.59  0.00  0.00  0.00  0.00 99.90  1.00   3.5   0.0  31.4  0.00  0.00  1.00
   15  82     5     5   2.8   7.2   0.1  0.90  0.00  0.93  0.00  0.00  0.00  0.00  0.04  0.00  0.73  0.00  0.00  0.00  0.00 99.90  1.00   3.3   0.0  31.4  0.00  0.00  1.00
   15  83     6     6   6.6   8.6   0.7  0.85  0.00  0.78  0.00  0.00  0.00  0.00  0.04  0.00  0.34  0.00  0.00  0.00  0.00 99.90  1.00   3.5   0.0  31.4  0.00  0.00  1.00
   15  84     7     7   8.9  10.0   1.3  0.81  0.00  0.68  0.00  0.00  0.00  0.00  0.04  0.00  0.11  0.00  0.00  0.00  0.00 99.90  1.00   4.3   0.0  31.4  0.00  0.00  1.00
   15  85     8     8   6.3  10.1   0.7  0.76  0.41  0.79  0.00  0.00  0.00  0.00  0.04  0.00  0.37  0.00  0.00  0.00  0.00 99.90  1.00   5.5   0.0  31.4  1.00  0.00  1.00
   15  86     9     9   6.5  10.2   0.9  0.71  0.40  0.78  0.00  0.00  0.00  0.00  0.04  0.00  0.35  0.00  0.00  0.00  0.00 99.90  4.30   7.0   0.0  31.4  1.00  0.01  1.00
   15  87    10    10   6.4  10.3   1.1  0.66  0.40  0.78  0.00  0.00  0.00  0.00  0.04  0.00  0.36  0.00  0.00  0.00  0.00 99.90  1.73   7.4   0.0  31.4  1.00  0.01  1.00
   15  88    11    11   9.5  10.5   2.0  0.63  0.39  0.66  0.00  0.00  0.00  0.00  0.04  0.00  0.05  0.00  0.00  0.00  0.00 99.90  1.71   9.1   0.1  31.4  1.00  0.01  1.00
   15  89    12    12   6.7  10.6   1.5  0.58  0.38  0.77  0.00  0.00  0.00  0.00  0.04  0.00  0.33  0.00  0.00  0.00  0.00 99.90  1.33  15.7   0.1  31.4  1.00  0.01  1.00
   15  90    13    13   7.8  10.7   2.0  0.53  0.37  0.73  0.00  0.00  0.13  0.00  0.04  0.00  0.23  0.33  0.00  0.26  0.00 99.90  0.87  18.1   0.2  31.4  0.91  0.02  0.99
   15  91    14    14   3.3  10.8   1.0  0.48  0.37  0.91  0.00  0.33  0.00  0.10  0.04  0.00  0.67  0.00  0.10  0.00  0.10 99.90  1.58  19.8   0.1  31.4  0.90  0.07  0.96
[...]
   15 106    29    29  15.7  12.4  11.5  0.00  0.27  0.41  0.00  0.00  0.01  0.61  0.04  0.00  0.00  0.24  0.61  0.02  0.61 38.65  0.99  24.8   0.6  30.5  0.45  0.17  0.81
   15 107    30    30  10.9  12.5   8.0  0.00  0.26  0.61  0.00  0.00  0.00  0.62  0.04  0.00  0.00  0.05  0.62  0.00  0.62 83.01  1.24  46.7   0.6  30.5  0.46  0.20  0.81
   15 108    31    31   5.5  12.6   4.1  0.00  0.25  0.82  0.00  0.00  0.00  0.62  0.04  0.00  0.45  0.00  0.62  0.00  0.62 89.20  2.49  41.8   0.5  30.5  0.49  0.26  0.83
   15 109    32    32   6.4  12.6   4.8  0.00  0.25  0.78  0.00  0.00  0.00  0.58  0.04  0.00  0.36  0.00  0.58  0.00  0.58 69.49  2.17  39.5   0.6  30.3  0.52  0.32  0.84
   15 110    33    33   8.1  12.7   6.2  0.00  0.24  0.71  0.00  0.00  0.00  0.55  0.04  0.00  0.19  0.00  0.55  0.00  0.55 56.24  1.92  38.8   0.7  30.2  0.54  0.37  0.84
   15 111    34    34  10.7  12.8   8.1  0.00  0.24  0.61  0.00  0.00  0.00  0.52  0.04  0.00  0.00  0.00  0.52  0.00  0.52 49.00  1.83  38.5   0.8  30.0  0.55  0.39  0.83
   15 112    35    35  11.2  12.9   8.6  0.00  0.23  0.59  0.00  0.00  0.00  0.52  0.04  0.00  0.00  0.00  0.52  0.00  0.52 47.81  1.94  38.3   0.8  29.9  0.55  0.40  0.82
   15 113    36    36   6.1  12.9   4.7  0.00  0.22  0.80  0.00  0.00  0.00  0.51  0.04  0.00  0.39  0.00  0.51  0.00  0.51 62.24  2.78  37.8   0.6  29.7  0.57  0.43  0.82
   15 114    37    37   8.8  13.0   6.8  0.00  0.22  0.69  0.00  0.00  0.00  0.49  0.04  0.00  0.12  0.00  0.49  0.00  0.49 44.83  1.72  37.4   0.8  29.6  0.57  0.44  0.81
   15 115    38    38  11.4  13.1   9.0  0.00  0.21  0.58  0.00  0.00  0.00  0.49  0.04  0.00  0.00  0.00  0.49  0.00  0.49 45.55  1.69  38.9   0.9  29.5  0.57  0.43  0.81
   15 116    39    39  15.1  13.2  11.9  0.00  0.21  0.44  0.00  0.00  0.00  0.49  0.04  0.00  0.00  0.00  0.49  0.00  0.49 55.32  2.46  40.9   0.7  29.4  0.56  0.42  0.81
   15 117    40    40  14.5  13.3  11.6  0.00  0.20  0.46  0.00  0.00  0.00  0.50  0.04  0.00  0.00  0.00  0.50  0.00  0.50 46.35  2.18  46.6   1.0  29.4  0.55  0.41  0.81
   15 118    41    41   8.3  13.4   6.7  0.00  0.20  0.71  0.00  0.00  0.00  0.51  0.04  0.00  0.17  0.00  0.51  0.00  0.51 85.91  3.84  52.4   0.6  29.3  0.57  0.44  0.80
   15 119    42    42   7.0  13.5   5.6  0.00  0.19  0.76  0.00  0.00  0.00  0.49  0.04  0.00  0.30  0.00  0.49  0.00  0.49 64.98  3.12  51.0   0.8  29.2  0.59  0.48  0.81
   15 120    43    43  10.4  13.5   8.4  0.00  0.19  0.63  0.00  0.00  0.00  0.47  0.04  0.00  0.00  0.00  0.47  0.00  0.47 65.67  3.32  51.1   0.8  29.0  0.60  0.51  0.81
   15 121    44    44   8.6  13.6   7.1  0.00  0.18  0.69  0.00  0.00  0.00  0.46  0.04  0.00  0.14  0.00  0.46  0.00  0.46 99.90  8.37  75.6   0.3  28.9  0.61  0.53  0.80
   15 122    45    45  10.5  13.7   8.6  0.00  0.18  0.62  0.00  0.00  0.00  0.44  0.04  0.00  0.00  0.00  0.44  0.00  0.44 99.90  4.29  72.7   0.6  28.8  0.61  0.52  0.80
   15 123    46    46  13.2  13.8  11.0  0.00  0.17  0.51  0.00  0.00  0.00  0.45  0.04  0.00  0.00  0.00  0.45  0.00  0.45 99.90  4.09  79.5   0.7  28.7  0.60  0.50  0.80
   15 124    47    47  17.5  14.0  14.5  0.00  0.17  0.34  0.00  0.00  0.00  0.46  0.04  0.00  0.00  0.00  0.46  0.00  0.46 83.12  3.58  69.7   0.8  28.2  0.59  0.48  0.80
   15 125    48    48  19.4  14.1  16.2  0.00  0.16  0.26  0.00  0.00  0.00  0.47  0.04  0.00  0.00  0.00  0.47  0.00  0.47 54.45  2.41  70.6   1.3  28.2  0.57  0.44  0.80
   15 126    49    49  11.6  14.2   9.7  0.00  0.16  0.58  0.00  0.00  0.00  0.50  0.04  0.00  0.00  0.00  0.50  0.00  0.50 99.90  4.25  89.5   0.8  28.2  0.56  0.43  0.80
   15 127    50    50  13.0  14.3  11.0  0.00  0.15  0.52  0.00  0.00  0.00  0.50  0.04  0.00  0.00  0.00  0.50  0.00  0.50 73.01  3.24  76.9   1.1  27.7  0.56  0.44  0.80
   15 128    51    51  15.5  14.5  13.2  0.00  0.15  0.42  0.00  0.00  0.00  0.50  0.04  0.00  0.00  0.00  0.50  0.00  0.50 54.60  2.74  71.2   1.3  27.6  0.56  0.44  0.80
   15 129    52    52  14.2  14.6  12.1  0.00  0.15  0.47  0.00  0.00  0.00  0.50  0.04  0.00  0.00  0.00  0.50  0.00  0.50 83.99  4.20  75.0   0.9  27.7  0.56  0.44  0.79
   15 130    53    53  13.2  14.7  11.3  0.00  0.14  0.51  0.00  0.00  0.00  0.51  0.04  0.00  0.00  0.00  0.51  0.00  0.51 62.01  3.31  72.6   1.2  27.9  0.56  0.46  0.79
   15 131    54    54  13.7  14.8  11.8  0.00  0.14  0.49  0.00  0.00  0.00  0.50  0.04  0.00  0.00  0.00  0.50  0.00  0.50 49.69  2.84  70.7   1.4  28.0  0.56  0.45  0.79
   15 132    55    55  18.0  14.9  15.5  0.00  0.13  0.32  0.00  0.00  0.00  0.51  0.04  0.00  0.00  0.00  0.51  0.00  0.51 41.08  2.47  70.4   1.7  28.2  0.56  0.46  0.79
   15 133    56    56  17.8  15.1  15.4  0.00  0.13  0.33  0.00  0.00  0.00  0.51  0.04  0.00  0.00  0.00  0.51  0.00  0.51 66.70  3.91  75.9   1.1  28.3  0.55  0.46  0.79
   15 134    57    57  15.0  15.2  13.1  0.00  0.13  0.44  0.00  0.00  0.00  0.52  0.04  0.00  0.00  0.00  0.52  0.00  0.52 73.39  4.45  75.9   1.0  28.5  0.53  0.45  0.79
   15 135    58    58  11.4  15.3  10.0  0.00  0.12  0.58  0.00  0.00  0.00  0.54  0.04  0.00  0.00  0.00  0.54  0.00  0.54 75.65  4.76  75.2   1.0  28.6  0.53  0.46  0.79
   15 136    59    59  12.8  15.4  11.2  0.00  0.12  0.53  0.00  0.00  0.00  0.54  0.04  0.00  0.00  0.00  0.54  0.00  0.54 51.05  3.35  74.1   1.5  28.8  0.53  0.46  0.79
   15 137    60    60  14.1  15.5  12.5  0.00  0.12  0.47  0.00  0.00  0.00  0.54  0.04  0.00  0.00  0.00  0.54  0.00  0.54 69.16  4.68  74.7   1.1  28.9  0.53  0.48  0.79
   15 138    61    61  15.4  15.7  13.7  0.00  0.11  0.42  0.00  0.00  0.00  0.54  0.04  0.00  0.00  0.00  0.54  0.00  0.54 42.70  3.00  73.8   1.7  29.0  0.52  0.47  0.79
   15 139    62    62  13.9  15.8  12.4  0.00  0.11  0.48  0.00  0.00  0.00  0.55  0.04  0.00  0.00  0.00  0.55  0.00  0.55 75.13  4.56  88.9   1.2  29.1  0.53  0.48  0.79
   15 140    63    63   8.4  15.9   8.4  0.00  0.00  0.71  0.00  0.00  0.00  0.54  0.04  0.00  0.16  0.00  0.54  0.00  0.54 99.90  8.18 107.1   0.7  29.1  0.54  0.50  0.79
   15 141    64    64   9.8  15.9   9.8  0.00  0.00  0.65  0.00  0.00  0.00  0.53  0.04  0.00  0.02  0.00  0.53  0.00  0.53 99.90  6.06 106.5   0.9  29.1  0.54  0.48  0.79
   15 142    65    65   9.9  16.0   9.9  0.00  0.00  0.65  0.00  0.00  0.00  0.53  0.04  0.00  0.01  0.00  0.53  0.00  0.53 70.94  4.21  97.4   1.4  29.2  0.53  0.46  0.79
   15 143    66    66  11.7  16.1  11.7  0.00  0.00  0.57  0.00  0.00  0.00  0.54  0.04  0.00  0.00  0.00  0.54  0.00  0.54 71.65  4.33  98.7   1.4  29.2  0.51  0.44  0.79
   15 144    67    67  12.1  16.2  12.1  0.00  0.00  0.55  0.00  0.00  0.00  0.56  0.04  0.00  0.00  0.00  0.56  0.00  0.56 79.68  4.98  98.3   1.2  29.2  0.50  0.42  0.79
   15 145    68    68  14.6  30.2  14.5  0.00  0.00  0.46  0.00  0.00  0.00  0.58  0.04  0.00  0.00  0.00  0.58  0.00  0.58 62.64  4.04  97.6   1.6  29.3  0.50  0.41  0.79
   15 146    69    69  11.6  30.7  11.6  0.00  0.00  0.58  0.00  0.00  0.00  0.59  0.04  0.00  0.00  0.00  0.59  0.00  0.59 73.43  4.93  96.2   1.3  29.2  0.49  0.40  0.79
   15 147    70    70   9.2  31.1   9.2  0.00  0.00  0.67  0.00  0.00  0.00  0.60  0.04  0.00  0.07  0.00  0.60  0.00  0.60 63.40  4.44  94.4   1.5  29.2  0.49  0.40  0.79
   15 148    71    71  11.9  31.6  11.9  0.00  0.00  0.56  0.00  0.00  0.00  0.59  0.04  0.00  0.00  0.00  0.59  0.00  0.59 42.07  3.09  92.6   2.2  29.2  0.48  0.38  0.79
   15 149    72    72  15.6  32.3  15.6  0.00  0.00  0.42  0.00  0.00  0.00  0.60  0.04  0.00  0.00  0.00  0.60  0.00  0.60 38.62  2.98  91.2   2.4  29.2  0.47  0.36  0.79
   15 150    73    73  14.9  33.0  14.9  0.00  0.00  0.44  0.00  0.00  0.00  0.62  0.04  0.00  0.00  0.00  0.62  0.00  0.62 58.71  4.71  90.7   1.5  29.3  0.48  0.37  0.79
   15 151    74    74  15.4  33.7  15.4  0.00  0.00  0.42  0.00  0.00  0.00  0.60  0.04  0.00  0.00  0.00  0.60  0.00  0.60 43.04  3.17  89.7   2.1  29.1  0.48  0.36  0.79
   15 152    75    75  19.0  34.5  19.0  0.00  0.00  0.28  0.00  0.00  0.00  0.61  0.04  0.00  0.00  0.00  0.61  0.00  0.61 34.99  2.55  88.9   2.5  29.3  0.45  0.35  0.79
   15 153    76    76  19.8  35.4  19.8  0.00  0.00  0.25  0.00  0.00  0.00  0.64  0.04  0.00  0.00  0.00  0.64  0.00  0.64 35.91  2.69  88.2   2.5  29.5  0.44  0.34  0.79
   15 154    77    77  20.5  36.3  20.5  0.00  0.00  0.22  0.00  0.00  0.00  0.65  0.04  0.00  0.03  0.00  0.65  0.00  0.65 29.01  2.25  87.0   3.0  29.6  0.44  0.33  0.79
   15 155    78    78  19.7  37.2  19.7  0.00  0.00  0.25  0.00  0.00  0.00  0.67  0.04  0.00  0.00  0.00  0.67  0.00  0.67 29.98  2.40  86.0   2.9  29.8  0.43  0.33  0.79
   15 156    79    79  21.8  38.1  21.8  0.00  0.00  0.17  0.00  0.00  0.00  0.68  0.04  0.00  0.12  0.00  0.68  0.00  0.68 29.50  2.01  85.5   2.9  30.0  0.43  0.33  0.80
   15 157    80    80  21.8  39.1  21.8  0.00  0.00  0.17  0.00  0.00  0.00  0.68  0.04  0.00  0.12  0.00  0.68  0.00  0.68 25.03  1.62  87.1   3.5  30.2  0.43  0.32  0.80
   15 158    81    81  21.5  40.0  21.5  0.00  0.00  0.18  0.00  0.00  0.00  0.68  0.04  0.00  0.10  0.00  0.68  0.00  0.68 30.64  2.49  86.1   2.8  30.5  0.41  0.32  0.80
   15 159    82    82  16.1  40.7  16.1  0.00  0.00  0.39  0.00  0.00  0.00  0.70  0.04  0.00  0.00  0.00  0.70  0.00  0.70 45.81  2.19 101.3   2.2  30.7  0.44  0.36  0.80
   15 160    83    83  12.3  41.2  12.3  0.00  0.00  0.55  0.00  0.00  0.00  0.68  0.04  0.00  0.00  0.00  0.68  0.00  0.68 96.38  7.36 101.8   1.1  30.9  0.46  0.42  0.81
   15 161    84    84  14.7  41.8  14.7  0.00  0.00  0.45  0.00  0.00  0.00  0.64  0.04  0.00  0.00  0.00  0.64  0.00  0.64 50.84  3.92 100.3   2.0  31.0  0.49  0.48  0.82
   15 162    85    85  18.3  42.6  18.3  0.00  0.00  0.31  0.00  0.00  0.00  0.61  0.04  0.00  0.00  0.00  0.61  0.00  0.61 43.23  3.43  98.4   2.3  31.0  0.53  0.56  0.83
   15 163    86    86  20.9  43.5  20.9  0.00  0.00  0.20  0.00  0.00  0.00  0.57  0.04  0.00  0.06  0.00  0.57  0.00  0.57 28.78  2.33  96.2   3.3  30.8  0.55  0.57  0.83
   15 164    87    87  20.1  44.3  20.1  0.00  0.00  0.24  0.00  0.00  0.00  0.55  0.04  0.00  0.01  0.00  0.55  0.00  0.55 38.73  2.99 102.5   2.6  31.0  0.57  0.60  0.83
   15 165    88    88  20.1  45.1  20.1  0.00  0.00  0.24  0.00  0.00  0.00  0.52  0.04  0.00  0.01  0.00  0.52  0.00  0.52 47.95  3.18 120.1   2.5  31.1  0.59  0.60  0.83
   15 166    89    89  15.1  45.8  15.1  0.00  0.00  0.44  0.00  0.00  0.00  0.49  0.04  0.00  0.00  0.00  0.49  0.00  0.49 99.90  8.30 139.3   1.2  31.4  0.62  0.64  0.84
   15 167    90    90  15.2  46.4  15.2  0.00  0.00  0.43  0.00  0.00  0.00  0.46  0.04  0.00  0.00  0.00  0.46  0.00  0.46 69.23  5.24 137.4   2.0  31.5  0.65  0.69  0.85
   15 168    91    91  14.8  47.0  14.8  0.00  0.00  0.45  0.00  0.00  0.00  0.43  0.04  0.00  0.00  0.00  0.43  0.00  0.43 61.97  4.86 135.0   2.2  31.6  0.67  0.72  0.85
   15 169    92    92  13.2  47.6  13.2  0.00  0.00  0.51  0.00  0.00  0.00  0.40  0.04  0.00  0.00  0.00  0.40  0.00  0.40 75.89  5.66 144.8   1.9  31.7  0.70  0.75  0.86
   15 170    93    93  13.2  48.1  13.2  0.00  0.00  0.51  0.00  0.00  0.00  0.37  0.04  0.00  0.00  0.00  0.37  0.00  0.37 98.74  7.56 143.5   1.5  31.7  0.72  0.78  0.87
   15 171    94    94  12.2  48.6  12.2  0.00  0.00  0.55  0.00  0.00  0.00  0.34  0.04  0.00  0.00  0.00  0.34  0.00  0.34 90.87  7.09 142.6   1.6  31.6  0.74  0.82  0.88
   15 172    95    95  13.6  49.2  13.6  0.00  0.00  0.50  0.00  0.00  0.00  0.31  0.04  0.00  0.00  0.00  0.31  0.00  0.31 73.01  5.85 141.1   1.9  31.6  0.77  0.86  0.89
   15 173    96    96  16.2  49.9  16.2  0.00  0.00  0.39  0.00  0.00  0.00  0.28  0.04  0.00  0.00  0.00  0.28  0.00  0.28 71.07  5.49 148.9   2.1  31.4  0.80  0.89  0.90
   15 174    97    97  13.1  51.7  13.1  0.00  0.00  0.51  0.00  0.00  0.00  0.25  0.04  0.00  0.00  0.00  0.25  0.00  0.25 85.41  6.67 149.8   1.8  31.3  0.81  0.90  0.90
   15 175    98    98  13.9  54.0  13.9  0.00  0.00  0.48  0.00  0.00  0.00  0.23  0.04  0.00  0.00  0.00  0.23  0.00  0.23 62.63  5.06 146.8   2.3  31.4  0.83  0.92  0.91
   15 176    99    99  13.8  56.3  13.9  0.00  0.00  0.49  0.00  0.00  0.00  0.21  0.04  0.00  0.00  0.00  0.21  0.00  0.21 54.65  4.61 143.4   2.6  31.3  0.84  0.94  0.92
   15 177   100   100  16.5  59.1  16.5  0.00  0.00  0.38  0.00  0.00  0.00  0.20  0.04  0.00  0.00  0.00  0.20  0.00  0.20 49.20  4.30 141.0   2.9  31.2  0.86  0.95  0.92
   15 178   101   101  18.4  65.3  18.4  0.00  0.00  0.31  0.00  0.00  0.00  0.18  0.04  0.00  0.00  0.00  0.18  0.00  0.18 64.01  5.71 140.5   2.2  31.1  0.87  0.97  0.93
   15 179   102   102  17.9  70.4  17.9  0.00  0.00  0.33  0.00  0.00  0.00  0.16  0.04  0.00  0.00  0.00  0.16  0.00  0.16 62.11  5.65 139.0   2.2  31.2  0.89  0.99  0.93
   15 180   103   103  18.9  71.6  18.9  0.00  0.00  0.29  0.00  0.00  0.00  0.14  0.04  0.00  0.00  0.00  0.14  0.00  0.14 52.83  4.90 137.4   2.6  31.3  0.90  1.00  0.94
   15 181   104   104  20.6  73.0  20.6  0.00  0.00  0.22  0.00  0.00  0.00  0.12  0.04  0.00  0.04  0.00  0.12  0.00  0.12 43.66  3.86 135.5   3.1  31.4  0.92  1.00  0.94
   15 182   105   105  21.0  74.3  21.0  0.00  0.00  0.20  0.00  0.00  0.00  0.10  0.04  0.00  0.07  0.00  0.10  0.00  0.10 45.76  3.88 134.0   2.9  31.7  0.93  1.00  0.95
   15 183   106   106  22.2  75.7  22.2  0.00  0.00  0.15  0.00  0.00  0.00  0.08  0.04  0.00  0.15  0.00  0.08  0.00  0.08 44.93  3.82 132.5   2.9  31.9  0.95  1.00  0.95
   15 184   107   107  23.0  77.2  23.0  0.00  0.00  0.12  0.00  0.00  0.00  0.06  0.04  0.00  0.20  0.00  0.06  0.00  0.06 40.10  3.45 130.9   3.3  31.9  0.96  1.00  0.92
   15 185   108   108  24.6  78.8  24.6  0.00  0.00  0.06  0.00  0.00  0.00  0.05  0.04  0.00  0.30  0.00  0.05  0.00  0.05 40.29  3.50 129.7   3.2  32.1  0.96  1.00  0.89
   15 186   109   109  25.5  80.1  25.5  0.00  0.00  0.02  0.00  0.05  0.00  0.05  0.04  0.00  0.37  0.00  0.05  0.00  0.05 40.94  3.16 128.8   3.1  32.2  0.91  1.00  0.86
   15 187   110   110  23.2  80.4  23.2  0.00  0.00  0.02  0.00  0.00  0.00  0.12  0.04  0.00  0.21  0.00  0.12  0.00  0.12 51.50  3.75 128.4   2.5  32.5  0.85  0.99  0.83
   15 188   111   111  25.1  80.8  25.1  0.00  0.00  0.02  0.00  0.01  0.00  0.19  0.04  0.00  0.34  0.00  0.19  0.00  0.19 40.47  2.82 131.3   3.2  32.7  0.77  0.97  0.81
   15 189   112   112  17.4  81.0  17.4  0.00  0.00  0.02  0.00  0.00  0.00  0.29  0.04  0.00  0.00  0.00  0.29  0.00  0.29 77.63  5.60 136.9   1.8  33.0  0.74  0.96  0.80
   15 190   113   113  13.9  81.2  13.9  0.00  0.00  0.02  0.00  0.00  0.00  0.34  0.04  0.00  0.00  0.00  0.34  0.00  0.34 67.80  5.79 134.6   2.0  33.2  0.74  0.96  0.79
   15 191   114   114  14.9  81.4  14.9  0.00  0.00  0.02  0.00  0.00  0.00  0.34  0.04  0.00  0.00  0.00  0.34  0.00  0.34 53.92  4.45 132.5   2.5  33.1  0.73  0.96  0.78
   15 192   115   115  18.3  81.7  18.3  0.00  0.00  0.02  0.00  0.00  0.00  0.36  0.04  0.00  0.00  0.00  0.36  0.00  0.36 42.64  3.15 130.3   3.1  33.1  0.66  0.94  0.77
   15 193   116   116  20.5  82.0  20.5  0.00  0.00  0.02  0.00  0.00  0.00  0.45  0.04  0.00  0.03  0.00  0.45  0.00  0.45 48.43  3.36 128.8   2.7  33.2  0.58  0.93  0.76
   15 194   117   117  18.4  82.3  18.4  0.00  0.00  0.02  0.00  0.00  0.00  0.55  0.04  0.00  0.00  0.00  0.55  0.00  0.55 86.66  5.50 129.2   1.5  33.3  0.52  0.91  0.76
   15 195   118   118  20.6  82.6  20.6  0.00  0.00  0.02  0.00  0.00  0.00  0.64  0.04  0.00  0.04  0.00  0.64  0.00  0.64 57.73  3.78 128.3   2.2  33.4  0.47  0.90  0.76
   15 196   119   119  21.7  82.9  21.7  0.00  0.00  0.02  0.00  0.00  0.00  0.70  0.04  0.00  0.11  0.00  0.70  0.00  0.70 54.69  2.86 127.4   2.3  33.6  0.44  0.90  0.76
   15 197   120   120  22.4  83.2  22.4  0.00  0.00  0.02  0.00  0.00  0.00  0.76  0.04  0.00  0.16  0.00  0.76  0.00  0.76 43.59  2.00 126.1   2.9  33.7  0.41  0.89  0.75
   15 198   121   121  24.6  83.5  24.6  0.00  0.00  0.02  0.00  0.00  0.00  0.80  0.04  0.00  0.31  0.00  0.80  0.00  0.80 40.86  1.70 124.9   3.1  34.0  0.38  0.89  0.75
   15 199   122   122  22.0  83.8  22.0  0.00  0.00  0.02  0.00  0.00  0.00  0.84  0.04  0.00  0.13  0.00  0.84  0.00  0.84 50.22  1.77 124.5   2.5  34.2  0.37  0.89  0.75
   15 200   123   123  22.4  84.2  22.4  0.00  0.00  0.02  0.00  0.00  0.00  0.87  0.04  0.00  0.16  0.00  0.87  0.00  0.87 53.83  1.67 124.3   2.3  34.5  0.35  0.89  0.75
   15 201   124   124  23.3  84.5  23.3  0.00  0.00  0.02  0.00  0.00  0.00  0.89  0.04  0.00  0.22  0.00  0.89  0.00  0.89 60.02  1.70 124.1   2.1  34.9  0.34  0.90  0.75
   15 202   125   125  24.2  84.8  24.2  0.00  0.00  0.02  0.00  0.00  0.00  0.91  0.04  0.00  0.28  0.01  0.91  0.00  0.91 48.86  1.29 123.8   2.5  35.2  0.34  0.90  0.75
   15 203   126   126  25.0  85.2  25.0  0.00  0.00  0.02  0.00  0.00  0.00  0.93  0.04  0.00  0.33  0.15  0.93  0.00  0.93 44.40  1.10 123.3   2.8  35.5  0.33  0.90  0.75
   15 204   127   127  21.4  85.5  21.4  0.00  0.00  0.02  0.00  0.00  0.00  0.94  0.04  0.00  0.09  0.00  0.94  0.00  0.94 87.23  2.03 124.1   1.4  35.9  0.33  0.91  0.75
   15 205   128   128  22.0  85.8  22.0  0.00  0.00  0.02  0.00  0.00  0.00  0.95  0.04  0.00  0.13  0.00  0.95  0.00  0.95 56.53  1.30 123.6   2.2  36.2  0.33  0.91  0.75
   15 206   129   129  18.8  86.1  18.8  0.00  0.00  0.02  0.00  0.00  0.00  0.96  0.04  0.00  0.00  0.02  0.96  0.00  0.96 66.20  1.28 123.5   1.9  36.6  0.33  0.92  0.75
   15 207   130   130  15.6  86.3  15.5  0.00  0.00  0.02  0.00  0.00  0.00  0.97  0.04  0.00  0.00  0.14  0.97  0.00  0.97 65.45  1.12 123.3   1.9  36.9  0.33  0.92  0.75
   15 208   131   131  18.3  86.6  18.3  0.00  0.00  0.02  0.00  0.00  0.00  0.97  0.04  0.00  0.00  0.10  0.97  0.00  0.97 76.53  1.17 126.3   1.7  37.2  0.33  0.92  0.75
   15 209   132   132  17.5  86.8  17.5  0.00  0.00  0.02  0.00  0.00  0.00  0.98  0.04  0.00  0.00  0.00  0.98  0.00  0.98 80.36  2.24 126.9   1.6  37.5  0.33  0.93  0.75
   15 210   133   133  15.0  87.0  15.0  0.00  0.00  0.02  0.00  0.00  0.00  0.98  0.04  0.00  0.00  0.00  0.98  0.00  0.98 85.53  2.29 127.1   1.5  37.7  0.33  0.93  0.75
   15 211   134   134  14.6  87.2  14.6  0.00  0.00  0.02  0.00  0.00  0.00  0.99  0.04  0.00  0.00  0.00  0.99  0.00  0.99 76.07  1.95 126.2   1.7  37.8  0.34  0.94  0.75
   15 212   135   135  16.4  87.5  16.4  0.00  0.00  0.02  0.00  0.00  0.08  0.99  0.04  0.00  0.00  0.29  0.99  0.15  0.99 77.26  0.92 125.7   1.6  38.0  0.34  0.94  0.75
   15 213   136   136  17.0  87.7  17.0  0.00  0.00  0.02  0.00  0.00  0.00  0.99  0.04  0.00  0.00  0.14  0.99  0.00  0.99 99.90  1.11 125.7   1.1  38.2  0.34  0.95  0.75
   15 214   137   137  19.0  88.0  19.0  0.00  0.00  0.02  0.00  0.00  0.23  0.99  0.04  0.00  0.00  0.40  0.99  0.45  0.99 89.00  0.77 126.1   1.4  38.4  0.35  0.95  0.75
   15 215   138   138  19.8  88.3  19.8  0.00  0.00  0.02  0.00  0.00  0.40  0.99  0.04  0.00  0.00  0.54  0.99  0.79  0.99 78.74  0.60 126.9   1.6  38.6  0.36  0.96  0.75
   15 216   139   139  21.9  88.6  21.9  0.00  0.00  0.02  0.00  0.00  0.47  0.99  0.04  0.00  0.12  0.59  0.99  0.94  0.99 76.31  0.53 128.1   1.7  38.9  0.36  0.97  0.75
   15 217   140   140  21.8  88.9  21.8  0.00  0.00  0.02  0.00  0.00  0.41  1.00  0.04  0.00  0.12  0.54  1.00  0.81  1.00 93.88  0.59 129.2   1.4  39.1  0.37  0.97  0.75
   15 218   141   141  23.4  89.2  23.4  0.00  0.00  0.02  0.00  0.00  0.47  1.00  0.04  0.00  0.23  0.59  1.00  0.93  1.00 91.69  0.53 130.6   1.4  39.4  0.38  0.98  0.75
   15 219   142   142  24.8  89.6  24.8  0.00  0.00  0.02  0.00  0.00  0.46  1.00  0.04  0.00  0.32  0.58  1.00  0.91  1.00 99.90  0.54 132.2   1.3  39.7  0.39  0.99  0.75
   15 220   143   143  25.2  89.9  25.2  0.00  0.00  0.02  0.00  0.02  0.38  1.00  0.04  0.00  0.34  0.52  1.00  0.76  1.00 99.90  0.62 134.0   1.1  40.1  0.40  1.00  0.75
   15 221   144   144  24.7  91.1  24.7  0.00  0.00  0.02  0.00  0.00  0.24  1.00  0.04  0.00  0.31  0.42  1.00  0.49  1.00 99.90  0.76 135.5   0.9  40.4  0.41  1.00  0.75
