*SOIL WATER DAILY OUTPUT FILE

*DSSAT Cropping System Model Ver. 4.8.5.000 -release  OCT 24, 2025 14:14:59

*RUN   1        : 1                         CSCER048 TUDU1501    1
 MODEL          : CSCER048 - Wheat
 EXPERIMENT     : TUDU1501 WH
 DATA PATH      :
 TREATMENT  1   : 1                         CSCER048
  
!                                                                                                                                   Soil water content (mm3/mm3) by soil depth (cm):
!                                                                                                                                   0-5    5-15   15-30   30-45   45-60   60-80  80-100 100-150 150-200
@YEAR DOY   DAS    SWTD    SWXD    ROFC    DRNC    PREC    IR#C    IRRC   LATFC    DTWT    MWTD    TDFD    TDFC    ROFD    ROSD    SW1D    SW2D    SW3D    SW4D    SW5D    SW6D    SW7D    SW8D    SW9D
   15 076     0     530     255       0       0       0       0       0       0     200    0.00     0.0     0.0    0.00    0.00   0.236   0.247   0.262   0.276   0.276   0.274   0.274   0.262   0.262
   15 077     1     529     254       0       0       0       0       0       0     200    0.00     0.0     0.0    0.00    0.00   0.229   0.246   0.262   0.276   0.276   0.274   0.274   0.262   0.262
   15 078     2     528     253       0       0       0       0       0       0     200    0.00     0.0     0.0    0.00    0.00   0.209   0.245   0.261   0.276   0.276   0.274   0.274   0.262   0.262
   15 079     3     527     252       0       0       0       0       0       0     200    0.00     0.0     0.0    0.00    0.00   0.192   0.243   0.261   0.276   0.276   0.274   0.274   0.262   0.262
   15 080     4     529     253       0       0       3       0       0       0     200    0.00     0.0     0.0    0.00    0.00   0.225   0.245   0.261   0.276   0.276   0.274   0.274   0.262   0.262
   15 081     5     528     253       0       0       4       0       0       0     200    0.00     0.0     0.0    0.00    0.00   0.221   0.246   0.261   0.276   0.276   0.274   0.274   0.262   0.262
   15 082     6     527     252       0       0       4       0       0       0     200    0.00     0.0     0.0    0.00    0.00   0.202   0.244   0.260   0.275   0.276   0.274   0.274   0.262   0.262
   15 083     7     526     251       0       0       4       0       0       0     200    0.00     0.0     0.0    0.00    0.00   0.185   0.243   0.260   0.275   0.276   0.274   0.274   0.262   0.262
   15 084     8     525     250       0       0       4       0       0       0     200    0.00     0.0     0.0    0.00    0.00   0.170   0.242   0.260   0.275   0.276   0.274   0.274   0.262   0.262
   15 085     9     525     250       0       0       4       0       0       0     200    0.00     0.0     0.0    0.00    0.00   0.171   0.241   0.260   0.275   0.276   0.274   0.274   0.262   0.262
   15 086    10     526     250       0       0       6       0       0       0     200    0.00     0.0     0.0    0.00    0.00   0.181   0.239   0.259   0.275   0.275   0.274   0.274   0.262   0.262
   15 087    11     525     249       0       0       6       0       0       0     200    0.00     0.0     0.0    0.00    0.00   0.167   0.238   0.259   0.275   0.275   0.274   0.274   0.262   0.262
   15 088    12     525     249       0       0       7       0       0       0     200    0.00     0.0     0.0    0.00    0.00   0.171   0.237   0.259   0.275   0.275   0.274   0.274   0.262   0.262
   15 089    13     531     256       0       0      15       0       0       0     200    0.00     0.0     0.0    0.00    0.00   0.269   0.251   0.262   0.275   0.275   0.274   0.274   0.262   0.262
   15 090    14     532     257       0       0      18       0       0       0     200    0.00     0.0     0.0    0.00    0.00   0.281   0.256   0.264   0.276   0.276   0.273   0.273   0.261   0.261
   15 091    15     534     258       0       0      22       0       0       0     200    0.00     0.0     0.0    0.00    0.00   0.293   0.262   0.268   0.279   0.277   0.273   0.272   0.261   0.261
   15 092    16     537     261       0       0      27       0       0       0     200    0.00     0.0     0.0    0.00    0.00   0.311   0.269   0.272   0.282   0.279   0.275   0.272   0.260   0.261
   15 093    17     532     256       0       2      27       0       0       0     200    0.00     0.0     0.0    0.00    0.00   0.261   0.253   0.265   0.277   0.276   0.274   0.273   0.261   0.262
   15 094    18     535     259       0       2      31       0       0       0     200    0.00     0.0     0.0    0.00    0.00   0.293   0.261   0.268   0.279   0.278   0.276   0.273   0.261   0.261
   15 095    19     531     255       0       4      31       0       0       0     200    0.00     0.0     0.0    0.00    0.00   0.254   0.250   0.263   0.276   0.277   0.275   0.273   0.261   0.262
   15 096    20     529     253       0       4      31       0       0       0     200    0.00     0.0     0.0    0.00    0.00   0.238   0.247   0.262   0.277   0.276   0.274   0.273   0.261   0.261
   15 097    21     526     251       0       4      31       0       0       0     200    0.00     0.0     0.0    0.00    0.00   0.227   0.243   0.260   0.275   0.274   0.273   0.272   0.260   0.261
   15 098    22     525     249       0       4      31       0       0       0     200    0.00     0.0     0.0    0.00    0.00   0.206   0.240   0.260   0.275   0.274   0.273   0.272   0.260   0.261
   15 099    23     523     248       0       4      31       0       0       0     200    0.00     0.0     0.0    0.00    0.00   0.186   0.238   0.259   0.275   0.274   0.273   0.272   0.260   0.261
   15 100    24     522     247       0       4      31       0       0       0     200    0.00     0.0     0.0    0.00    0.00   0.165   0.235   0.259   0.275   0.274   0.273   0.272   0.260   0.261
   15 101    25     521     245       0       4      31       0       0       0     200    0.00     0.0     0.0    0.00    0.00   0.147   0.232   0.259   0.275   0.274   0.273   0.272   0.260   0.261
   15 102    26     520     244       0       4      31       0       0       0     200    0.00     0.0     0.0    0.00    0.00   0.134   0.228   0.258   0.275   0.274   0.273   0.272   0.260   0.261
   15 103    27     519     243       0       4      31       0       0       0     200    0.00     0.0     0.0    0.00    0.00   0.124   0.225   0.258   0.275   0.274   0.273   0.272   0.260   0.261
   15 104    28     518     242       0       4      31       0       0       0     200    0.00     0.0     0.0    0.00    0.00   0.115   0.221   0.258   0.275   0.274   0.273   0.272   0.260   0.261
   15 105    29     517     242       0       4      31       0       0       0     200    0.00     0.0     0.0    0.00    0.00   0.107   0.217   0.257   0.274   0.274   0.273   0.272   0.260   0.261
   15 106    30     516     241       0       4      32       0       0       0     200    0.00     0.0     0.0    0.00    0.00   0.102   0.213   0.257   0.274   0.274   0.273   0.272   0.260   0.261
   15 107    31     537     262       0       4      56       0       0       0     200    0.00     0.0     0.0    0.24    0.00   0.309   0.290   0.273   0.280   0.277   0.273   0.271   0.259   0.260
   15 108    32     532     257       0       6      56       0       0       0     200    0.00     0.0     0.0    0.00    0.00   0.256   0.264   0.266   0.277   0.275   0.273   0.273   0.261   0.262
   15 109    33     528     253       0       7      56       0       0       0     200    0.00     0.0     0.0    0.00    0.00   0.227   0.250   0.261   0.275   0.275   0.273   0.273   0.261   0.261
   15 110    34     524     249       0       7      56       0       0       0     200    0.00     0.0     0.0    0.00    0.00   0.205   0.242   0.258   0.273   0.273   0.271   0.272   0.260   0.261
   15 111    35     522     247       0       7      56       0       0       0     200    0.00     0.0     0.0    0.00    0.00   0.178   0.239   0.257   0.273   0.273   0.271   0.272   0.260   0.261
   15 112    36     521     245       0       7      56       0       0       0     200    0.00     0.0     0.0    0.00    0.00   0.153   0.236   0.257   0.273   0.273   0.271   0.272   0.260   0.261
   15 113    37     519     244       0       7      56       0       0       0     200    0.00     0.0     0.0    0.00    0.00   0.137   0.232   0.256   0.272   0.273   0.271   0.272   0.260   0.261
   15 114    38     518     242       0       7      56       0       0       0     200    0.00     0.0     0.0    0.00    0.00   0.125   0.225   0.254   0.272   0.273   0.271   0.272   0.260   0.261
   15 115    39     518     242       0       7      57       0       0       0     200    0.00     0.0     0.0    0.00    0.00   0.144   0.218   0.253   0.272   0.273   0.271   0.272   0.260   0.261
   15 116    40     518     242       0       7      59       0       0       0     200    0.00     0.0     0.0    0.00    0.00   0.159   0.212   0.252   0.272   0.273   0.271   0.272   0.260   0.261
   15 117    41     521     246       0       7      65       0       0       0     200    0.00     0.0     0.0    0.00    0.00   0.229   0.217   0.250   0.272   0.273   0.271   0.272   0.260   0.261
   15 118    42     525     249       0       7      71       0       0       0     200    0.00     0.0     0.0    0.00    0.00   0.286   0.240   0.248   0.270   0.271   0.270   0.271   0.260   0.260
   15 119    43     521     246       0       7      71       0       0       0     200    0.00     0.0     0.0    0.00    0.00   0.239   0.241   0.249   0.268   0.270   0.269   0.270   0.259   0.260
   15 120    44     519     243       0       7      72       0       0       0     200    0.00     0.0     0.0    0.00    0.00   0.228   0.240   0.246   0.266   0.269   0.268   0.269   0.258   0.259
   15 121    45     545     269       3       7     103       0       0       0     200    0.00     0.0     0.0    3.10    0.00   0.309   0.318   0.303   0.291   0.280   0.271   0.269   0.258   0.259
   15 122    46     543     268       3       7     104       0       0       0     200    0.00     0.0     0.0    0.00    0.00   0.274   0.288   0.296   0.300   0.290   0.277   0.272   0.258   0.259
   15 123    47     552     276       3       7     116       0       0       0     200    0.00     0.0     0.0    0.11    0.00   0.303   0.307   0.298   0.306   0.298   0.283   0.278   0.259   0.258
   15 124    48     539     264       3      16     116       0       0       0     200    0.00     0.0     0.0    0.00    0.00   0.248   0.271   0.277   0.289   0.286   0.278   0.275   0.261   0.262
   15 125    49     538     262       3      16     120       0       0       0     200    0.00     0.0     0.0    0.00    0.00   0.252   0.259   0.272   0.287   0.286   0.279   0.277   0.262   0.261
   15 126    50     558     283       6      16     145       0       0       0     200    0.00     0.0     0.0    2.35    0.00   0.303   0.315   0.310   0.306   0.296   0.283   0.280   0.264   0.260
   15 127    51     541     266       6      29     145       0       0       0     200    0.00     0.0     0.0    0.00    0.00   0.246   0.273   0.283   0.289   0.285   0.278   0.276   0.263   0.262
   15 128    52     532     256       6      34     145       0       0       0     200    0.00     0.0     0.0    0.00    0.00   0.214   0.251   0.268   0.280   0.279   0.275   0.275   0.263   0.261
   15 129    53     533     257       6      34     150       0       0       0     200    0.00     0.0     0.0    0.00    0.00   0.257   0.251   0.265   0.279   0.279   0.275   0.276   0.262   0.261
   15 130    54     529     253       6      34     150       0       0       0     200    0.01     0.0     0.0    0.00    0.00   0.223   0.241   0.261   0.276   0.277   0.274   0.275   0.261   0.261
   15 131    55     523     248       6      34     150       0       0       0     200    0.01     0.0     0.0    0.00    0.00   0.196   0.231   0.255   0.273   0.275   0.272   0.274   0.261   0.261
   15 132    56     520     245       6      34     150       0       0       0     200    0.01     0.0     0.0    0.00    0.00   0.163   0.224   0.252   0.272   0.274   0.272   0.274   0.261   0.261
   15 133    57     524     248       6      34     156       0       0       0     200    0.01     0.0     0.0    0.00    0.00   0.238   0.231   0.249   0.271   0.274   0.272   0.274   0.261   0.261
   15 134    58     521     246       6      34     157       0       0       0     200    0.01     0.0     0.0    0.00    0.00   0.228   0.229   0.246   0.268   0.272   0.272   0.273   0.260   0.260
   15 135    59     519     244       6      34     158       0       0       0     200    0.01     0.0     0.0    0.00    0.00   0.210   0.224   0.243   0.267   0.272   0.271   0.273   0.260   0.260
   15 136    60     516     241       6      34     158       0       0       0     200    0.01     0.0     0.0    0.00    0.00   0.179   0.218   0.240   0.266   0.271   0.271   0.273   0.260   0.260
   15 137    61     515     239       6      34     159       0       0       0     200    0.01     0.0     0.0    0.00    0.00   0.176   0.213   0.237   0.264   0.270   0.271   0.273   0.260   0.260
   15 138    62     512     236       6      34     159       0       0       0     200    0.01     0.0     0.0    0.00    0.00   0.146   0.205   0.233   0.262   0.269   0.271   0.273   0.260   0.260
   15 139    63     525     249       6      34     175       0       0       0     200    0.02     0.0     0.0    0.00    0.00   0.299   0.258   0.241   0.260   0.268   0.271   0.273   0.260   0.260
   15 140    64     542     266       7      34     196       0       0       0     200    0.02     0.0     0.0    1.29    0.00   0.310   0.316   0.288   0.281   0.273   0.271   0.273   0.260   0.260
   15 141    65     541     265       7      34     197       0       0       0     200    0.02     0.0     0.0    0.00    0.00   0.275   0.287   0.287   0.291   0.282   0.275   0.272   0.259   0.260
   15 142    66     533     257       7      38     197       0       0       0     200    0.02     0.0     0.0    0.00    0.00   0.236   0.259   0.270   0.280   0.277   0.274   0.273   0.262   0.262
   15 143    67     532     257       7      38     200       0       0       0     200    0.02     0.0     0.0    0.00    0.00   0.254   0.253   0.265   0.279   0.278   0.276   0.273   0.261   0.261
   15 144    68     531     255       7      38     202       0       0       0     200    0.02     0.0     0.0    0.00    0.00   0.245   0.249   0.262   0.277   0.277   0.275   0.274   0.261   0.261
   15 145    69     527     252       7      38     202       0       0       0     200    0.02     0.0     0.0    0.00    0.00   0.232   0.243   0.260   0.274   0.275   0.274   0.274   0.260   0.261
   15 146    70     524     249       7      38     202       0       0       0     200    0.02     0.0     0.0    0.00    0.00   0.217   0.237   0.256   0.272   0.273   0.273   0.274   0.260   0.261
   15 147    71     521     245       7      38     202       0       0       0     200    0.02     0.0     0.0    0.00    0.00   0.188   0.230   0.252   0.269   0.271   0.273   0.274   0.260   0.261
   15 148    72     517     241       7      38     202       0       0       0     200    0.02     0.0     0.0    0.00    0.00   0.157   0.221   0.246   0.266   0.269   0.272   0.274   0.260   0.261
   15 149    73     512     237       7      38     202       0       0       0     200    0.02     0.0     0.0    0.00    0.00   0.132   0.211   0.239   0.262   0.266   0.271   0.274   0.260   0.261
   15 150    74     509     234       7      38     203       0       0       0     200    0.02     0.0     0.0    0.00    0.00   0.124   0.203   0.234   0.259   0.264   0.270   0.274   0.260   0.261
   15 151    75     505     230       7      38     203       0       0       0     200    0.02     0.0     0.0    0.00    0.00   0.115   0.193   0.227   0.255   0.261   0.269   0.273   0.260   0.261
   15 152    76     501     225       7      38     203       0       0       0     200    0.02     0.0     0.0    0.00    0.00   0.111   0.180   0.219   0.250   0.257   0.267   0.273   0.260   0.261
   15 153    77     496     221       7      38     203       0       0       0     200    0.02     0.0     0.0    0.00    0.00   0.104   0.168   0.211   0.245   0.253   0.266   0.273   0.260   0.261
   15 154    78     491     216       7      38     203       0       0       0     200    0.02     0.0     0.0    0.00    0.00   0.098   0.158   0.200   0.239   0.248   0.263   0.273   0.260   0.261
   15 155    79     486     211       7      38     203       0       0       0     200    0.02     0.0     0.0    0.00    0.00   0.092   0.154   0.188   0.232   0.242   0.261   0.273   0.260   0.261
   15 156    80     481     206       7      38     203       0       0       0     200    0.02     0.0     0.0    0.00    0.00   0.087   0.150   0.178   0.223   0.236   0.258   0.273   0.260   0.260
   15 157    81     479     203       7      38     206       0       0       0     200    0.03     0.0     0.0    0.00    0.00   0.150   0.146   0.172   0.212   0.226   0.253   0.272   0.260   0.260
   15 158    82     474     198       7      38     206       0       0       0     200    0.03     0.0     0.0    0.00    0.00   0.120   0.144   0.170   0.204   0.220   0.250   0.272   0.260   0.260
   15 159    83     487     211       7      38     223       0       0       0     200    0.03     0.0     0.0    0.00    0.00   0.313   0.208   0.167   0.198   0.213   0.247   0.271   0.260   0.260
   15 160    84     486     210       7      38     224       0       0       0     200    0.03     0.0     0.0    0.00    0.00   0.274   0.225   0.167   0.197   0.211   0.246   0.271   0.260   0.260
   15 161    85     483     207       7      38     224       0       0       0     200    0.03     0.0     0.0    0.00    0.00   0.229   0.226   0.166   0.195   0.208   0.244   0.271   0.260   0.260
   15 162    86     479     203       7      38     224       0       0       0     200    0.03     0.0     0.0    0.00    0.00   0.193   0.216   0.165   0.194   0.205   0.243   0.270   0.260   0.260
   15 163    87     473     197       7      38     224       0       0       0     200    0.03     0.0     0.0    0.00    0.00   0.138   0.200   0.164   0.192   0.201   0.240   0.270   0.260   0.260
   15 164    88     477     201       7      38     233       0       0       0     200    0.03     0.0     0.0    0.00    0.00   0.263   0.197   0.163   0.190   0.198   0.237   0.269   0.260   0.260
   15 165    89     492     217       8      38     253       0       0       0     200    0.03     0.0     0.0    0.60    0.00   0.283   0.295   0.203   0.189   0.196   0.235   0.269   0.260   0.260
   15 166    90     510     235       9      38     275       0       0       0     200    0.03     0.0     0.0    1.66    0.00   0.306   0.315   0.281   0.211   0.196   0.234   0.268   0.260   0.260
   15 167    91     507     231       9      38     275       0       0       0     200    0.03     0.0     0.0    0.00    0.00   0.249   0.273   0.267   0.252   0.195   0.233   0.268   0.260   0.260
   15 168    92     503     227       9      38     275       0       0       0     200    0.03     0.0     0.0    0.00    0.00   0.219   0.251   0.259   0.262   0.194   0.231   0.267   0.259   0.260
   15 169    93     511     235       9      38     287       0       0       0     200    0.03     0.0     0.0    0.00    0.00   0.300   0.275   0.268   0.269   0.193   0.230   0.267   0.259   0.260
   15 170    94     508     233       9      38     287       0       0       0     200    0.03     0.0     0.0    0.00    0.00   0.252   0.255   0.261   0.274   0.209   0.229   0.266   0.259   0.260
   15 171    95     506     231       9      38     288       0       0       0     200    0.03     0.0     0.0    0.00    0.00   0.237   0.249   0.261   0.274   0.207   0.228   0.266   0.259   0.260
   15 172    96     503     228       9      38     288       0       0       0     200    0.03     0.0     0.0    0.00    0.00   0.223   0.242   0.257   0.271   0.205   0.227   0.265   0.259   0.260
   15 173    97     509     234       9      38     298       0       0       0     200    0.03     0.0     0.0    0.00    0.00   0.300   0.262   0.262   0.273   0.203   0.226   0.265   0.259   0.260
   15 174    98     509     233       9      38     301       0       0       0     200    0.03     0.0     0.0    0.00    0.00   0.284   0.261   0.265   0.276   0.204   0.224   0.264   0.259   0.260
   15 175    99     504     229       9      38     301       0       0       0     200    0.03     0.0     0.0    0.00    0.00   0.236   0.245   0.259   0.273   0.214   0.223   0.264   0.259   0.259
   15 176   100     500     224       9      38     301       0       0       0     200    0.03     0.0     0.0    0.00    0.00   0.202   0.235   0.253   0.269   0.212   0.221   0.263   0.259   0.259
   15 177   101     494     218       9      38     301       0       0       0     200    0.03     0.0     0.0    0.00    0.00   0.166   0.224   0.246   0.265   0.208   0.220   0.262   0.259   0.259
   15 178   102     491     215       9      38     302       0       0       0     200    0.03     0.0     0.0    0.00    0.00   0.156   0.215   0.241   0.262   0.206   0.218   0.262   0.259   0.259
   15 179   103     486     211       9      38     302       0       0       0     200    0.03     0.0     0.0    0.00    0.00   0.132   0.205   0.235   0.259   0.204   0.217   0.261   0.259   0.259
   15 180   104     481     206       9      38     302       0       0       0     200    0.03     0.0     0.0    0.00    0.00   0.121   0.191   0.226   0.254   0.201   0.215   0.260   0.259   0.259
   15 181   105     476     200       9      38     302       0       0       0     200    0.03     0.0     0.0    0.00    0.00   0.112   0.175   0.216   0.248   0.199   0.212   0.259   0.259   0.259
   15 182   106     470     195       9      38     302       0       0       0     200    0.03     0.0     0.0    0.00    0.00   0.105   0.158   0.206   0.243   0.197   0.209   0.258   0.258   0.259
   15 183   107     465     189       9      38     302       0       0       0     200    0.03     0.0     0.0    0.00    0.00   0.098   0.152   0.192   0.235   0.194   0.206   0.256   0.258   0.259
   15 184   108     459     183       9      38     302       0       0       0     200    0.03     0.0     0.0    0.00    0.00   0.092   0.148   0.176   0.226   0.192   0.203   0.255   0.258   0.259
   15 185   109     453     177       9      38     302       0       0       0     200    0.03     0.0     0.0    0.00    0.00   0.087   0.143   0.169   0.211   0.189   0.199   0.252   0.258   0.259
   15 186   110     447     171       9      38     302       0       0       0     200    0.03     0.0     0.0    0.00    0.00   0.082   0.139   0.164   0.194   0.186   0.195   0.248   0.258   0.259
   15 187   111     444     168       9      38     303       0       0       0     200    0.03     0.0     0.0    0.00    0.00   0.093   0.136   0.160   0.188   0.183   0.192   0.244   0.258   0.259
   15 188   112     445     169       9      38     307       0       0       0     200    0.03     0.0     0.0    0.00    0.00   0.173   0.133   0.158   0.184   0.181   0.189   0.239   0.258   0.259
   15 189   113     448     172       9      38     314       0       0       0     200    0.03     0.0     0.0    0.00    0.00   0.221   0.149   0.157   0.183   0.181   0.189   0.238   0.258   0.259
   15 190   114     444     169       9      38     314       0       0       0     200    0.03     0.0     0.0    0.00    0.00   0.167   0.146   0.156   0.182   0.180   0.188   0.236   0.258   0.259
   15 191   115     440     164       9      38     314       0       0       0     200    0.03     0.0     0.0    0.00    0.00   0.108   0.143   0.155   0.181   0.179   0.187   0.234   0.258   0.259
   15 192   116     437     162       9      38     314       0       0       0     200    0.03     0.0     0.0    0.00    0.00   0.103   0.139   0.153   0.179   0.178   0.186   0.230   0.258   0.259
   15 193   117     435     159       9      38     314       0       0       0     200    0.03     0.0     0.0    0.00    0.00   0.097   0.136   0.152   0.177   0.176   0.184   0.226   0.257   0.259
   15 194   118     433     157       9      38     315       0       0       0     200    0.03     0.0     0.0    0.00    0.00   0.110   0.133   0.150   0.175   0.175   0.183   0.221   0.257   0.259
   15 195   119     431     155       9      38     315       0       0       0     200    0.03     0.0     0.0    0.00    0.00   0.103   0.131   0.149   0.174   0.174   0.182   0.217   0.257   0.259
   15 196   120     429     153       9      38     315       0       0       0     200    0.03     0.0     0.0    0.00    0.00   0.097   0.129   0.148   0.173   0.173   0.181   0.212   0.257   0.259
   15 197   121     427     151       9      38     315       0       0       0     200    0.03     0.0     0.0    0.00    0.00   0.091   0.127   0.147   0.172   0.172   0.180   0.208   0.257   0.259
   15 198   122     425     149       9      38     315       0       0       0     200    0.03     0.0     0.0    0.00    0.00   0.086   0.126   0.146   0.171   0.171   0.179   0.204   0.257   0.259
   15 199   123     423     148       9      38     316       0       0       0     200    0.03     0.0     0.0    0.00    0.00   0.089   0.125   0.145   0.170   0.171   0.178   0.201   0.257   0.259
   15 200   124     423     147       9      38     316       0       0       0     200    0.03     0.0     0.0    0.00    0.00   0.093   0.123   0.144   0.169   0.170   0.177   0.199   0.256   0.259
   15 201   125     421     146       9      38     316       0       0       0     200    0.03     0.0     0.0    0.00    0.00   0.088   0.122   0.144   0.168   0.169   0.176   0.197   0.256   0.259
   15 202   126     420     144       9      38     316       0       0       0     200    0.03     0.0     0.0    0.00    0.00   0.083   0.121   0.143   0.167   0.168   0.176   0.196   0.256   0.259
   15 203   127     419     143       9      38     316       0       0       0     200    0.03     0.0     0.0    0.00    0.00   0.078   0.120   0.142   0.166   0.168   0.175   0.194   0.256   0.259
   15 204   128     419     144       9      38     318       0       0       0     200    0.03     0.0     0.0    0.00    0.00   0.101   0.119   0.141   0.166   0.167   0.175   0.193   0.256   0.259
   15 205   129     418     142       9      38     318       0       0       0     200    0.03     0.0     0.0    0.00    0.00   0.095   0.118   0.141   0.165   0.167   0.174   0.192   0.256   0.259
   15 206   130     417     142       9      38     318       0       0       0     200    0.03     0.0     0.0    0.00    0.00   0.093   0.118   0.140   0.164   0.166   0.173   0.191   0.256   0.259
   15 207   131     417     142       9      38     319       0       0       0     200    0.03     0.0     0.0    0.00    0.00   0.105   0.117   0.140   0.164   0.166   0.173   0.190   0.255   0.259
   15 208   132     420     144       9      38     322       0       0       0     200    0.03     0.0     0.0    0.00    0.00   0.165   0.117   0.139   0.163   0.165   0.172   0.189   0.255   0.259
   15 209   133     418     142       9      38     324       0       0       0     200    0.03     0.0     0.0    0.00    0.00   0.128   0.116   0.139   0.163   0.165   0.172   0.189   0.255   0.259
   15 210   134     417     141       9      38     325       0       0       0     200    0.03     0.0     0.0    0.00    0.00   0.131   0.116   0.138   0.163   0.164   0.172   0.188   0.255   0.259
   15 211   135     416     140       9      38     325       0       0       0     200    0.03     0.0     0.0    0.00    0.00   0.113   0.115   0.138   0.162   0.164   0.171   0.187   0.255   0.259
   15 212   136     415     139       9      38     325       0       0       0     200    0.03     0.0     0.0    0.00    0.00   0.105   0.115   0.137   0.162   0.163   0.171   0.187   0.255   0.259
   15 213   137     414     138       9      38     325       0       0       0     200    0.03     0.0     0.0    0.00    0.00   0.099   0.115   0.137   0.161   0.163   0.170   0.186   0.255   0.259
   15 214   138     413     137       9      38     325       0       0       0     200    0.03     0.0     0.0    0.00    0.00   0.095   0.114   0.136   0.161   0.163   0.170   0.185   0.254   0.259
   15 215   139     412     137       9      38     325       0       0       0     200    0.03     0.0     0.0    0.00    0.00   0.089   0.114   0.136   0.160   0.162   0.170   0.185   0.254   0.259
   15 216   140     411     136       9      38     325       0       0       0     200    0.03     0.0     0.0    0.00    0.00   0.084   0.113   0.136   0.160   0.162   0.169   0.184   0.254   0.259
   15 217   141     411     135       9      38     325       0       0       0     200    0.03     0.0     0.0    0.00    0.00   0.079   0.113   0.135   0.159   0.161   0.169   0.184   0.254   0.259
   15 218   142     410     134       9      38     325       0       0       0     200    0.03     0.0     0.0    0.00    0.00   0.075   0.112   0.135   0.159   0.161   0.168   0.183   0.254   0.259
   15 219   143     409     134       9      38     325       0       0       0     200    0.03     0.0     0.0    0.00    0.00   0.071   0.112   0.134   0.159   0.161   0.168   0.183   0.254   0.259
   15 220   144     411     135       9      38     327       0       0       0     200    0.03     0.0     0.0    0.00    0.00   0.104   0.111   0.134   0.158   0.160   0.168   0.182   0.254   0.259
   15 221   145     410     134       9      38     327       0       0       0     200    0.03     0.0     0.0    0.00    0.00   0.098   0.111   0.134   0.158   0.160   0.167   0.182   0.253   0.259

*DSSAT Cropping System Model Ver. 4.8.5.000 -release  OCT 24, 2025 14:14:59

*RUN   2        : 2                         CSCER048 TUDU1501    2
 MODEL          : CSCER048 - Wheat
 EXPERIMENT     : TUDU1501 WH
 DATA PATH      :
 TREATMENT  2   : 2                         CSCER048
  
!                                                                                                                                   Soil water content (mm3/mm3) by soil depth (cm):
!                                                                                                                                   0-5    5-15   15-30   30-45   45-60   60-80  80-100 100-150 150-200
@YEAR DOY   DAS    SWTD    SWXD    ROFC    DRNC    PREC    IR#C    IRRC   LATFC    DTWT    MWTD    TDFD    TDFC    ROFD    ROSD    SW1D    SW2D    SW3D    SW4D    SW5D    SW6D    SW7D    SW8D    SW9D
   15 076     0     530     255       0       0       0       0       0       0     200    0.00     0.0     0.0    0.00    0.00   0.236   0.247   0.262   0.276   0.276   0.274   0.274   0.262   0.262
   15 077     1     529     254       0       0       0       0       0       0     200    0.00     0.0     0.0    0.00    0.00   0.229   0.246   0.262   0.276   0.276   0.274   0.274   0.262   0.262
   15 078     2     528     253       0       0       0       0       0       0     200    0.00     0.0     0.0    0.00    0.00   0.209   0.245   0.261   0.276   0.276   0.274   0.274   0.262   0.262
   15 079     3     527     252       0       0       0       0       0       0     200    0.00     0.0     0.0    0.00    0.00   0.192   0.243   0.261   0.276   0.276   0.274   0.274   0.262   0.262
   15 080     4     529     253       0       0       3       0       0       0     200    0.00     0.0     0.0    0.00    0.00   0.225   0.245   0.261   0.276   0.276   0.274   0.274   0.262   0.262
   15 081     5     528     253       0       0       4       0       0       0     200    0.00     0.0     0.0    0.00    0.00   0.221   0.246   0.261   0.276   0.276   0.274   0.274   0.262   0.262
   15 082     6     527     252       0       0       4       0       0       0     200    0.00     0.0     0.0    0.00    0.00   0.202   0.244   0.260   0.275   0.276   0.274   0.274   0.262   0.262
   15 083     7     526     251       0       0       4       0       0       0     200    0.00     0.0     0.0    0.00    0.00   0.185   0.243   0.260   0.275   0.276   0.274   0.274   0.262   0.262
   15 084     8     525     250       0       0       4       0       0       0     200    0.00     0.0     0.0    0.00    0.00   0.170   0.242   0.260   0.275   0.276   0.274   0.274   0.262   0.262
   15 085     9     525     250       0       0       4       0       0       0     200    0.00     0.0     0.0    0.00    0.00   0.171   0.241   0.260   0.275   0.276   0.274   0.274   0.262   0.262
   15 086    10     526     250       0       0       6       0       0       0     200    0.00     0.0     0.0    0.00    0.00   0.181   0.239   0.259   0.275   0.275   0.274   0.274   0.262   0.262
   15 087    11     525     249       0       0       6       0       0       0     200    0.00     0.0     0.0    0.00    0.00   0.167   0.238   0.259   0.275   0.275   0.274   0.274   0.262   0.262
   15 088    12     525     249       0       0       7       0       0       0     200    0.00     0.0     0.0    0.00    0.00   0.171   0.237   0.259   0.275   0.275   0.274   0.274   0.262   0.262
   15 089    13     531     256       0       0      15       0       0       0     200    0.00     0.0     0.0    0.00    0.00   0.269   0.251   0.262   0.275   0.275   0.274   0.274   0.262   0.262
   15 090    14     532     257       0       0      18       0       0       0     200    0.00     0.0     0.0    0.00    0.00   0.281   0.256   0.264   0.276   0.276   0.273   0.273   0.261   0.261
   15 091    15     534     258       0       0      22       0       0       0     200    0.00     0.0     0.0    0.00    0.00   0.293   0.262   0.268   0.279   0.277   0.273   0.272   0.261   0.261
   15 092    16     537     261       0       0      27       0       0       0     200    0.00     0.0     0.0    0.00    0.00   0.311   0.269   0.272   0.282   0.279   0.275   0.272   0.260   0.261
   15 093    17     532     256       0       2      27       0       0       0     200    0.00     0.0     0.0    0.00    0.00   0.261   0.253   0.265   0.277   0.276   0.274   0.273   0.261   0.262
   15 094    18     535     259       0       2      31       0       0       0     200    0.00     0.0     0.0    0.00    0.00   0.293   0.261   0.268   0.279   0.278   0.276   0.273   0.261   0.261
   15 095    19     531     255       0       4      31       0       0       0     200    0.00     0.0     0.0    0.00    0.00   0.254   0.250   0.263   0.276   0.277   0.275   0.273   0.261   0.262
   15 096    20     529     253       0       4      31       0       0       0     200    0.00     0.0     0.0    0.00    0.00   0.238   0.247   0.262   0.277   0.276   0.274   0.273   0.261   0.261
   15 097    21     526     251       0       4      31       0       0       0     200    0.00     0.0     0.0    0.00    0.00   0.227   0.243   0.260   0.275   0.274   0.273   0.272   0.260   0.261
   15 098    22     525     249       0       4      31       0       0       0     200    0.00     0.0     0.0    0.00    0.00   0.206   0.240   0.260   0.275   0.274   0.273   0.272   0.260   0.261
   15 099    23     523     248       0       4      31       0       0       0     200    0.00     0.0     0.0    0.00    0.00   0.186   0.238   0.259   0.275   0.274   0.273   0.272   0.260   0.261
   15 100    24     522     247       0       4      31       0       0       0     200    0.00     0.0     0.0    0.00    0.00   0.165   0.235   0.259   0.275   0.274   0.273   0.272   0.260   0.261
   15 101    25     521     245       0       4      31       0       0       0     200    0.00     0.0     0.0    0.00    0.00   0.147   0.232   0.259   0.275   0.274   0.273   0.272   0.260   0.261
   15 102    26     520     244       0       4      31       0       0       0     200    0.00     0.0     0.0    0.00    0.00   0.134   0.228   0.258   0.275   0.274   0.273   0.272   0.260   0.261
   15 103    27     519     243       0       4      31       0       0       0     200    0.00     0.0     0.0    0.00    0.00   0.124   0.225   0.258   0.275   0.274   0.273   0.272   0.260   0.261
   15 104    28     518     242       0       4      31       0       0       0     200    0.00     0.0     0.0    0.00    0.00   0.115   0.221   0.258   0.275   0.274   0.273   0.272   0.260   0.261
   15 105    29     517     242       0       4      31       0       0       0     200    0.00     0.0     0.0    0.00    0.00   0.107   0.217   0.257   0.274   0.274   0.273   0.272   0.260   0.261
   15 106    30     516     241       0       4      32       0       0       0     200    0.00     0.0     0.0    0.00    0.00   0.102   0.213   0.257   0.274   0.274   0.273   0.272   0.260   0.261
   15 107    31     537     262       0       4      56       0       0       0     200    0.00     0.0     0.0    0.23    0.00   0.309   0.290   0.273   0.280   0.277   0.273   0.271   0.259   0.260
   15 108    32     532     257       0       6      56       0       0       0     200    0.00     0.0     0.0    0.00    0.00   0.256   0.264   0.265   0.277   0.275   0.273   0.273   0.261   0.262
   15 109    33     528     253       0       7      56       0       0       0     200    0.00     0.0     0.0    0.00    0.00   0.227   0.249   0.261   0.275   0.275   0.273   0.273   0.261   0.261
   15 110    34     524     249       0       7      56       0       0       0     200    0.00     0.0     0.0    0.00    0.00   0.205   0.242   0.258   0.273   0.273   0.271   0.272   0.260   0.261
   15 111    35     522     247       0       7      56       0       0       0     200    0.00     0.0     0.0    0.00    0.00   0.178   0.239   0.257   0.273   0.273   0.271   0.272   0.260   0.261
   15 112    36     521     245       0       7      56       0       0       0     200    0.00     0.0     0.0    0.00    0.00   0.154   0.235   0.256   0.273   0.273   0.271   0.272   0.260   0.261
   15 113    37     519     244       0       7      56       0       0       0     200    0.00     0.0     0.0    0.00    0.00   0.137   0.231   0.256   0.272   0.273   0.271   0.272   0.260   0.261
   15 114    38     518     242       0       7      56       0       0       0     200    0.00     0.0     0.0    0.00    0.00   0.125   0.224   0.254   0.272   0.273   0.271   0.272   0.260   0.261
   15 115    39     517     242       0       7      57       0       0       0     200    0.00     0.0     0.0    0.00    0.00   0.144   0.216   0.253   0.272   0.273   0.271   0.272   0.260   0.261
   15 116    40     517     242       0       7      59       0       0       0     200    0.00     0.0     0.0    0.00    0.00   0.159   0.210   0.251   0.272   0.273   0.271   0.272   0.260   0.261
   15 117    41     521     245       0       7      65       0       0       0     200    0.00     0.0     0.0    0.00    0.00   0.230   0.214   0.250   0.272   0.273   0.271   0.272   0.260   0.261
   15 118    42     525     249       0       7      71       0       0       0     200    0.00     0.0     0.0    0.00    0.00   0.287   0.237   0.248   0.270   0.271   0.270   0.271   0.260   0.260
   15 119    43     521     245       0       7      71       0       0       0     200    0.00     0.0     0.0    0.00    0.00   0.239   0.240   0.247   0.268   0.270   0.269   0.270   0.259   0.260
   15 120    44     519     243       0       7      72       0       0       0     200    0.00     0.0     0.0    0.00    0.00   0.229   0.240   0.244   0.267   0.269   0.268   0.269   0.258   0.259
   15 121    45     545     269       3       7     103       0       0       0     200    0.00     0.0     0.0    3.10    0.00   0.309   0.318   0.302   0.291   0.280   0.271   0.269   0.258   0.259
   15 122    46     543     268       3       7     104       0       0       0     200    0.00     0.0     0.0    0.00    0.00   0.274   0.288   0.295   0.300   0.290   0.277   0.272   0.258   0.259
   15 123    47     552     276       3       7     116       0       0       0     200    0.00     0.0     0.0    0.11    0.00   0.303   0.307   0.298   0.306   0.297   0.283   0.278   0.259   0.258
   15 124    48     539     264       3      16     116       0       0       0     200    0.00     0.0     0.0    0.00    0.00   0.249   0.270   0.277   0.289   0.286   0.278   0.275   0.261   0.262
   15 125    49     538     262       3      16     120       0       0       0     200    0.00     0.0     0.0    0.00    0.00   0.253   0.258   0.272   0.287   0.286   0.279   0.276   0.262   0.261
   15 126    50     558     283       6      16     145       0       0       0     200    0.00     0.0     0.0    2.35    0.00   0.304   0.315   0.310   0.306   0.296   0.283   0.280   0.264   0.261
   15 127    51     541     266       6      29     145       0       0       0     200    0.00     0.0     0.0    0.00    0.00   0.247   0.273   0.282   0.289   0.284   0.278   0.276   0.263   0.262
   15 128    52     532     256       6      34     145       0       0       0     200    0.00     0.0     0.0    0.00    0.00   0.215   0.250   0.268   0.280   0.279   0.275   0.275   0.263   0.261
   15 129    53     533     257       6      34     150       0       0       0     200    0.00     0.0     0.0    0.00    0.00   0.258   0.250   0.265   0.279   0.279   0.275   0.276   0.262   0.261
   15 130    54     529     253       6      34     150       0       0       0     200    0.01     0.0     0.0    0.00    0.00   0.224   0.240   0.260   0.276   0.277   0.274   0.275   0.261   0.261
   15 131    55     523     248       6      34     150       0       0       0     200    0.01     0.0     0.0    0.00    0.00   0.197   0.230   0.255   0.273   0.275   0.272   0.274   0.261   0.261
   15 132    56     520     244       6      34     150       0       0       0     200    0.01     0.0     0.0    0.00    0.00   0.164   0.222   0.252   0.272   0.275   0.272   0.274   0.261   0.261
   15 133    57     524     248       6      34     156       0       0       0     200    0.01     0.0     0.0    0.00    0.00   0.239   0.230   0.249   0.271   0.274   0.272   0.274   0.261   0.261
   15 134    58     521     246       6      34     157       0       0       0     200    0.01     0.0     0.0    0.00    0.00   0.229   0.227   0.245   0.268   0.273   0.272   0.273   0.260   0.260
   15 135    59     519     244       6      34     158       0       0       0     200    0.01     0.0     0.0    0.00    0.00   0.210   0.223   0.243   0.267   0.272   0.272   0.273   0.260   0.260
   15 136    60     516     241       6      34     158       0       0       0     200    0.01     0.0     0.0    0.00    0.00   0.179   0.216   0.239   0.265   0.271   0.271   0.273   0.260   0.260
   15 137    61     515     239       6      34     159       0       0       0     200    0.01     0.0     0.0    0.00    0.00   0.177   0.211   0.237   0.264   0.271   0.271   0.273   0.260   0.260
   15 138    62     511     236       6      34     159       0       0       0     200    0.01     0.0     0.0    0.00    0.00   0.147   0.203   0.232   0.262   0.270   0.271   0.273   0.260   0.260
   15 139    63     525     249       6      34     175       0       0       0     200    0.02     0.0     0.0    0.00    0.00   0.299   0.256   0.239   0.260   0.268   0.271   0.273   0.260   0.260
   15 140    64     542     266       7      34     196       0       0       0     200    0.02     0.0     0.0    1.27    0.00   0.311   0.316   0.287   0.280   0.273   0.271   0.273   0.260   0.260
   15 141    65     540     265       7      34     197       0       0       0     200    0.02     0.0     0.0    0.00    0.00   0.275   0.287   0.286   0.290   0.281   0.275   0.272   0.260   0.260
   15 142    66     533     257       7      38     197       0       0       0     200    0.02     0.0     0.0    0.00    0.00   0.237   0.259   0.269   0.280   0.277   0.274   0.273   0.262   0.262
   15 143    67     532     257       7      38     200       0       0       0     200    0.02     0.0     0.0    0.00    0.00   0.254   0.253   0.265   0.279   0.277   0.276   0.273   0.261   0.261
   15 144    68     530     255       7      38     202       0       0       0     200    0.02     0.0     0.0    0.00    0.00   0.246   0.248   0.262   0.277   0.277   0.275   0.274   0.261   0.261
   15 145    69     527     252       7      38     202       0       0       0     200    0.02     0.0     0.0    0.00    0.00   0.233   0.243   0.259   0.274   0.275   0.274   0.274   0.260   0.261
   15 146    70     524     249       7      38     202       0       0       0     200    0.02     0.0     0.0    0.00    0.00   0.218   0.236   0.255   0.271   0.273   0.273   0.273   0.260   0.261
   15 147    71     521     245       7      38     202       0       0       0     200    0.02     0.0     0.0    0.00    0.00   0.190   0.229   0.251   0.269   0.271   0.273   0.273   0.260   0.261
   15 148    72     516     241       7      38     202       0       0       0     200    0.02     0.0     0.0    0.00    0.00   0.158   0.220   0.245   0.266   0.269   0.272   0.273   0.260   0.261
   15 149    73     512     236       7      38     202       0       0       0     200    0.02     0.0     0.0    0.00    0.00   0.133   0.210   0.239   0.262   0.266   0.271   0.273   0.260   0.261
   15 150    74     509     233       7      38     203       0       0       0     200    0.02     0.0     0.0    0.00    0.00   0.124   0.202   0.234   0.259   0.264   0.270   0.273   0.260   0.261
   15 151    75     505     229       7      38     203       0       0       0     200    0.02     0.0     0.0    0.00    0.00   0.116   0.191   0.227   0.255   0.261   0.269   0.273   0.260   0.261
   15 152    76     501     225       7      38     203       0       0       0     200    0.02     0.0     0.0    0.00    0.00   0.112   0.178   0.218   0.250   0.257   0.267   0.273   0.260   0.261
   15 153    77     496     221       7      38     203       0       0       0     200    0.02     0.0     0.0    0.00    0.00   0.104   0.166   0.210   0.245   0.254   0.266   0.273   0.260   0.261
   15 154    78     491     215       7      38     203       0       0       0     200    0.02     0.0     0.0    0.00    0.00   0.098   0.157   0.198   0.238   0.249   0.263   0.273   0.260   0.261
   15 155    79     486     210       7      38     203       0       0       0     200    0.02     0.0     0.0    0.00    0.00   0.092   0.153   0.187   0.231   0.243   0.261   0.273   0.260   0.261
   15 156    80     481     205       7      38     203       0       0       0     200    0.02     0.0     0.0    0.00    0.00   0.087   0.149   0.177   0.222   0.237   0.258   0.273   0.260   0.261
   15 157    81     479     203       7      38     206       0       0       0     200    0.03     0.0     0.0    0.00    0.00   0.151   0.145   0.171   0.210   0.227   0.253   0.272   0.260   0.261
   15 158    82     474     198       7      38     206       0       0       0     200    0.03     0.0     0.0    0.00    0.00   0.121   0.143   0.169   0.202   0.221   0.250   0.272   0.260   0.261
   15 159    83     487     211       7      38     223       0       0       0     200    0.03     0.0     0.0    0.00    0.00   0.314   0.207   0.167   0.196   0.213   0.247   0.271   0.260   0.261
   15 160    84     486     210       7      38     224       0       0       0     200    0.03     0.0     0.0    0.00    0.00   0.274   0.224   0.166   0.195   0.212   0.246   0.271   0.260   0.260
   15 161    85     482     207       7      38     224       0       0       0     200    0.03     0.0     0.0    0.00    0.00   0.229   0.224   0.165   0.194   0.209   0.244   0.271   0.260   0.260
   15 162    86     478     203       7      38     224       0       0       0     200    0.03     0.0     0.0    0.00    0.00   0.194   0.214   0.165   0.193   0.206   0.243   0.270   0.260   0.260
   15 163    87     472     197       7      38     224       0       0       0     200    0.03     0.0     0.0    0.00    0.00   0.139   0.198   0.164   0.191   0.202   0.240   0.270   0.260   0.260
   15 164    88     476     201       7      38     233       0       0       0     200    0.03     0.0     0.0    0.00    0.00   0.263   0.194   0.162   0.189   0.198   0.237   0.269   0.260   0.260
   15 165    89     492     217       8      38     253       0       0       0     200    0.03     0.0     0.0    0.59    0.00   0.283   0.294   0.201   0.188   0.197   0.235   0.268   0.260   0.260
   15 166    90     510     234       9      38     275       0       0       0     200    0.03     0.0     0.0    1.65    0.00   0.306   0.315   0.280   0.209   0.196   0.234   0.268   0.260   0.260
   15 167    91     506     231       9      38     275       0       0       0     200    0.03     0.0     0.0    0.00    0.00   0.250   0.273   0.266   0.249   0.195   0.233   0.268   0.260   0.260
   15 168    92     502     227       9      38     275       0       0       0     200    0.03     0.0     0.0    0.00    0.00   0.219   0.251   0.259   0.259   0.194   0.231   0.267   0.260   0.260
   15 169    93     511     235       9      38     287       0       0       0     200    0.03     0.0     0.0    0.00    0.00   0.301   0.275   0.268   0.267   0.194   0.230   0.267   0.259   0.260
   15 170    94     508     233       9      38     287       0       0       0     200    0.03     0.0     0.0    0.00    0.00   0.253   0.255   0.261   0.274   0.207   0.229   0.266   0.259   0.260
   15 171    95     506     230       9      38     288       0       0       0     200    0.03     0.0     0.0    0.00    0.00   0.237   0.248   0.260   0.274   0.205   0.228   0.266   0.259   0.260
   15 172    96     503     227       9      38     288       0       0       0     200    0.03     0.0     0.0    0.00    0.00   0.223   0.241   0.257   0.271   0.204   0.227   0.265   0.259   0.260
   15 173    97     509     233       9      38     298       0       0       0     200    0.03     0.0     0.0    0.00    0.00   0.300   0.261   0.262   0.273   0.202   0.226   0.265   0.259   0.260
   15 174    98     509     233       9      38     301       0       0       0     200    0.03     0.0     0.0    0.00    0.00   0.284   0.260   0.264   0.275   0.203   0.225   0.264   0.259   0.260
   15 175    99     504     229       9      38     301       0       0       0     200    0.03     0.0     0.0    0.00    0.00   0.236   0.244   0.258   0.273   0.212   0.223   0.264   0.259   0.260
   15 176   100     499     224       9      38     301       0       0       0     200    0.03     0.0     0.0    0.00    0.00   0.211   0.233   0.252   0.269   0.209   0.221   0.263   0.259   0.259
   15 177   101     494     218       9      38     301       0       0       0     200    0.03     0.0     0.0    0.00    0.00   0.175   0.222   0.245   0.265   0.206   0.220   0.262   0.259   0.259
   15 178   102     490     215       9      38     302       0       0       0     200    0.03     0.0     0.0    0.00    0.00   0.165   0.213   0.240   0.262   0.204   0.219   0.262   0.259   0.259
   15 179   103     486     211       9      38     302       0       0       0     200    0.03     0.0     0.0    0.00    0.00   0.136   0.203   0.234   0.259   0.203   0.217   0.261   0.259   0.259
   15 180   104     481     205       9      38     302       0       0       0     200    0.03     0.0     0.0    0.00    0.00   0.124   0.189   0.225   0.254   0.200   0.215   0.260   0.259   0.259
   15 181   105     475     200       9      38     302       0       0       0     200    0.03     0.0     0.0    0.00    0.00   0.114   0.172   0.215   0.248   0.198   0.213   0.259   0.258   0.259
   15 182   106     470     194       9      38     302       0       0       0     200    0.03     0.0     0.0    0.00    0.00   0.107   0.156   0.204   0.242   0.196   0.210   0.258   0.258   0.259
   15 183   107     464     189       9      38     302       0       0       0     200    0.03     0.0     0.0    0.00    0.00   0.100   0.151   0.190   0.234   0.194   0.207   0.257   0.258   0.259
   15 184   108     458     183       9      38     302       0       0       0     200    0.03     0.0     0.0    0.00    0.00   0.094   0.146   0.174   0.225   0.192   0.203   0.255   0.258   0.259
   15 185   109     452     177       9      38     302       0       0       0     200    0.03     0.0     0.0    0.00    0.00   0.089   0.142   0.167   0.209   0.189   0.199   0.252   0.258   0.259
   15 186   110     446     171       9      38     302       0       0       0     200    0.03     0.0     0.0    0.00    0.00   0.084   0.138   0.163   0.191   0.186   0.195   0.249   0.258   0.259
   15 187   111     443     168       9      38     303       0       0       0     200    0.03     0.0     0.0    0.00    0.00   0.094   0.135   0.159   0.186   0.183   0.192   0.244   0.258   0.259
   15 188   112     445     169       9      38     307       0       0       0     200    0.03     0.0     0.0    0.00    0.00   0.175   0.132   0.157   0.182   0.181   0.190   0.240   0.258   0.259
   15 189   113     448     172       9      38     314       0       0       0     200    0.03     0.0     0.0    0.00    0.00   0.221   0.148   0.156   0.182   0.181   0.189   0.239   0.258   0.259
   15 190   114     444     168       9      38     314       0       0       0     200    0.03     0.0     0.0    0.00    0.00   0.167   0.145   0.155   0.181   0.180   0.188   0.238   0.258   0.259
   15 191   115     440     164       9      38     314       0       0       0     200    0.03     0.0     0.0    0.00    0.00   0.108   0.143   0.154   0.180   0.179   0.188   0.236   0.258   0.259
   15 192   116     437     162       9      38     314       0       0       0     200    0.03     0.0     0.0    0.00    0.00   0.103   0.138   0.153   0.178   0.178   0.186   0.231   0.258   0.259
   15 193   117     435     159       9      38     314       0       0       0     200    0.03     0.0     0.0    0.00    0.00   0.097   0.135   0.151   0.176   0.177   0.184   0.227   0.258   0.259
   15 194   118     433     158       9      38     315       0       0       0     200    0.03     0.0     0.0    0.00    0.00   0.110   0.132   0.150   0.175   0.175   0.183   0.223   0.257   0.259
   15 195   119     431     155       9      38     315       0       0       0     200    0.03     0.0     0.0    0.00    0.00   0.103   0.130   0.149   0.173   0.174   0.182   0.219   0.257   0.259
   15 196   120     429     153       9      38     315       0       0       0     200    0.03     0.0     0.0    0.00    0.00   0.097   0.128   0.147   0.172   0.173   0.181   0.215   0.257   0.259
   15 197   121     427     151       9      38     315       0       0       0     200    0.03     0.0     0.0    0.00    0.00   0.091   0.127   0.146   0.171   0.172   0.180   0.210   0.257   0.259
   15 198   122     425     149       9      38     315       0       0       0     200    0.03     0.0     0.0    0.00    0.00   0.086   0.125   0.145   0.170   0.172   0.179   0.206   0.257   0.259
   15 199   123     424     148       9      38     316       0       0       0     200    0.03     0.0     0.0    0.00    0.00   0.089   0.124   0.145   0.169   0.171   0.178   0.203   0.257   0.259
   15 200   124     423     147       9      38     316       0       0       0     200    0.03     0.0     0.0    0.00    0.00   0.093   0.123   0.144   0.168   0.170   0.177   0.201   0.257   0.259
   15 201   125     421     146       9      38     316       0       0       0     200    0.03     0.0     0.0    0.00    0.00   0.088   0.121   0.143   0.167   0.169   0.177   0.199   0.256   0.259
   15 202   126     420     145       9      38     316       0       0       0     200    0.03     0.0     0.0    0.00    0.00   0.083   0.120   0.142   0.167   0.169   0.176   0.197   0.256   0.259
   15 203   127     419     143       9      38     316       0       0       0     200    0.03     0.0     0.0    0.00    0.00   0.078   0.119   0.142   0.166   0.168   0.175   0.196   0.256   0.259
   15 204   128     419     144       9      38     318       0       0       0     200    0.03     0.0     0.0    0.00    0.00   0.101   0.118   0.141   0.165   0.167   0.175   0.194   0.256   0.259
   15 205   129     418     143       9      38     318       0       0       0     200    0.03     0.0     0.0    0.00    0.00   0.095   0.118   0.140   0.165   0.167   0.174   0.193   0.256   0.259
   15 206   130     418     142       9      38     318       0       0       0     200    0.03     0.0     0.0    0.00    0.00   0.093   0.117   0.140   0.164   0.166   0.174   0.192   0.256   0.259
   15 207   131     417     142       9      38     319       0       0       0     200    0.03     0.0     0.0    0.00    0.00   0.105   0.117   0.139   0.163   0.166   0.173   0.191   0.256   0.259
   15 208   132     420     144       9      38     322       0       0       0     200    0.03     0.0     0.0    0.00    0.00   0.165   0.117   0.139   0.163   0.165   0.173   0.190   0.256   0.259
   15 209   133     418     142       9      38     324       0       0       0     200    0.03     0.0     0.0    0.00    0.00   0.128   0.116   0.138   0.163   0.165   0.172   0.190   0.255   0.259
   15 210   134     417     142       9      38     325       0       0       0     200    0.03     0.0     0.0    0.00    0.00   0.131   0.116   0.138   0.162   0.165   0.172   0.189   0.255   0.259
   15 211   135     416     140       9      38     325       0       0       0     200    0.03     0.0     0.0    0.00    0.00   0.112   0.115   0.137   0.162   0.164   0.172   0.188   0.255   0.259
   15 212   136     415     139       9      38     325       0       0       0     200    0.03     0.0     0.0    0.00    0.00   0.105   0.115   0.137   0.161   0.164   0.171   0.188   0.255   0.259
   15 213   137     414     138       9      38     325       0       0       0     200    0.03     0.0     0.0    0.00    0.00   0.099   0.114   0.136   0.161   0.163   0.171   0.187   0.255   0.259
   15 214   138     413     138       9      38     325       0       0       0     200    0.03     0.0     0.0    0.00    0.00   0.095   0.114   0.136   0.160   0.163   0.170   0.186   0.255   0.259
   15 215   139     413     137       9      38     325       0       0       0     200    0.03     0.0     0.0    0.00    0.00   0.089   0.113   0.135   0.160   0.163   0.170   0.186   0.255   0.259
   15 216   140     412     136       9      38     325       0       0       0     200    0.03     0.0     0.0    0.00    0.00   0.084   0.113   0.135   0.159   0.162   0.169   0.185   0.255   0.259
   15 217   141     411     135       9      38     325       0       0       0     200    0.03     0.0     0.0    0.00    0.00   0.079   0.112   0.135   0.159   0.162   0.169   0.185   0.254   0.259
   15 218   142     410     135       9      38     325       0       0       0     200    0.03     0.0     0.0    0.00    0.00   0.075   0.112   0.134   0.159   0.161   0.169   0.184   0.254   0.259
   15 219   143     410     134       9      38     325       0       0       0     200    0.03     0.0     0.0    0.00    0.00   0.071   0.112   0.134   0.158   0.161   0.168   0.184   0.254   0.259
   15 220   144     411     135       9      38     327       0       0       0     200    0.03     0.0     0.0    0.00    0.00   0.104   0.111   0.134   0.158   0.161   0.168   0.183   0.254   0.259
   15 221   145     410     135       9      38     327       0       0       0     200    0.03     0.0     0.0    0.00    0.00   0.098   0.111   0.133   0.157   0.160   0.168   0.183   0.254   0.259

*DSSAT Cropping System Model Ver. 4.8.5.000 -release  OCT 24, 2025 14:14:59

*RUN   3        : 3                         CSCER048 TUDU1501    3
 MODEL          : CSCER048 - Wheat
 EXPERIMENT     : TUDU1501 WH
 DATA PATH      :
 TREATMENT  3   : 3                         CSCER048
  
!                                                                                                                                   Soil water content (mm3/mm3) by soil depth (cm):
!                                                                                                                                   0-5    5-15   15-30   30-45   45-60   60-80  80-100 100-150 150-200
@YEAR DOY   DAS    SWTD    SWXD    ROFC    DRNC    PREC    IR#C    IRRC   LATFC    DTWT    MWTD    TDFD    TDFC    ROFD    ROSD    SW1D    SW2D    SW3D    SW4D    SW5D    SW6D    SW7D    SW8D    SW9D
   15 076     0     530     255       0       0       0       0       0       0     200    0.00     0.0     0.0    0.00    0.00   0.236   0.247   0.262   0.276   0.276   0.274   0.274   0.262   0.262
   15 077     1     529     254       0       0       0       0       0       0     200    0.00     0.0     0.0    0.00    0.00   0.229   0.246   0.262   0.276   0.276   0.274   0.274   0.262   0.262
   15 078     2     528     253       0       0       0       0       0       0     200    0.00     0.0     0.0    0.00    0.00   0.209   0.245   0.261   0.276   0.276   0.274   0.274   0.262   0.262
   15 079     3     527     252       0       0       0       0       0       0     200    0.00     0.0     0.0    0.00    0.00   0.192   0.243   0.261   0.276   0.276   0.274   0.274   0.262   0.262
   15 080     4     529     253       0       0       3       0       0       0     200    0.00     0.0     0.0    0.00    0.00   0.225   0.245   0.261   0.276   0.276   0.274   0.274   0.262   0.262
   15 081     5     528     253       0       0       4       0       0       0     200    0.00     0.0     0.0    0.00    0.00   0.221   0.246   0.261   0.276   0.276   0.274   0.274   0.262   0.262
   15 082     6     527     252       0       0       4       0       0       0     200    0.00     0.0     0.0    0.00    0.00   0.202   0.244   0.260   0.275   0.276   0.274   0.274   0.262   0.262
   15 083     7     526     251       0       0       4       0       0       0     200    0.00     0.0     0.0    0.00    0.00   0.185   0.243   0.260   0.275   0.276   0.274   0.274   0.262   0.262
   15 084     8     525     250       0       0       4       0       0       0     200    0.00     0.0     0.0    0.00    0.00   0.170   0.242   0.260   0.275   0.276   0.274   0.274   0.262   0.262
   15 085     9     525     250       0       0       4       0       0       0     200    0.00     0.0     0.0    0.00    0.00   0.171   0.241   0.260   0.275   0.276   0.274   0.274   0.262   0.262
   15 086    10     526     250       0       0       6       0       0       0     200    0.00     0.0     0.0    0.00    0.00   0.181   0.239   0.259   0.275   0.275   0.274   0.274   0.262   0.262
   15 087    11     525     249       0       0       6       0       0       0     200    0.00     0.0     0.0    0.00    0.00   0.167   0.238   0.259   0.275   0.275   0.274   0.274   0.262   0.262
   15 088    12     525     249       0       0       7       0       0       0     200    0.00     0.0     0.0    0.00    0.00   0.171   0.237   0.259   0.275   0.275   0.274   0.274   0.262   0.262
   15 089    13     531     256       0       0      15       0       0       0     200    0.00     0.0     0.0    0.00    0.00   0.269   0.251   0.262   0.275   0.275   0.274   0.274   0.262   0.262
   15 090    14     532     257       0       0      18       0       0       0     200    0.00     0.0     0.0    0.00    0.00   0.281   0.256   0.264   0.276   0.276   0.273   0.273   0.261   0.261
   15 091    15     534     258       0       0      22       0       0       0     200    0.00     0.0     0.0    0.00    0.00   0.293   0.262   0.268   0.279   0.277   0.273   0.272   0.261   0.261
   15 092    16     537     261       0       0      27       0       0       0     200    0.00     0.0     0.0    0.00    0.00   0.311   0.269   0.272   0.282   0.279   0.275   0.272   0.260   0.261
   15 093    17     532     256       0       2      27       0       0       0     200    0.00     0.0     0.0    0.00    0.00   0.261   0.253   0.265   0.277   0.276   0.274   0.273   0.261   0.262
   15 094    18     535     259       0       2      31       0       0       0     200    0.00     0.0     0.0    0.00    0.00   0.293   0.261   0.268   0.279   0.278   0.276   0.273   0.261   0.261
   15 095    19     531     255       0       4      31       0       0       0     200    0.00     0.0     0.0    0.00    0.00   0.254   0.250   0.263   0.276   0.277   0.275   0.273   0.261   0.262
   15 096    20     529     253       0       4      31       0       0       0     200    0.00     0.0     0.0    0.00    0.00   0.238   0.247   0.262   0.277   0.276   0.274   0.273   0.261   0.261
   15 097    21     526     251       0       4      31       0       0       0     200    0.00     0.0     0.0    0.00    0.00   0.227   0.243   0.260   0.275   0.274   0.273   0.272   0.260   0.261
   15 098    22     525     249       0       4      31       0       0       0     200    0.00     0.0     0.0    0.00    0.00   0.206   0.240   0.260   0.275   0.274   0.273   0.272   0.260   0.261
   15 099    23     523     248       0       4      31       0       0       0     200    0.00     0.0     0.0    0.00    0.00   0.186   0.237   0.259   0.275   0.274   0.273   0.272   0.260   0.261
   15 100    24     522     247       0       4      31       0       0       0     200    0.00     0.0     0.0    0.00    0.00   0.167   0.234   0.259   0.275   0.274   0.273   0.272   0.260   0.261
   15 101    25     521     245       0       4      31       0       0       0     200    0.00     0.0     0.0    0.00    0.00   0.151   0.230   0.259   0.275   0.274   0.273   0.272   0.260   0.261
   15 102    26     520     244       0       4      31       0       0       0     200    0.00     0.0     0.0    0.00    0.00   0.138   0.226   0.258   0.275   0.274   0.273   0.272   0.260   0.261
   15 103    27     518     243       0       4      31       0       0       0     200    0.00     0.0     0.0    0.00    0.00   0.127   0.221   0.257   0.275   0.274   0.273   0.272   0.260   0.261
   15 104    28     517     242       0       4      31       0       0       0     200    0.00     0.0     0.0    0.00    0.00   0.118   0.215   0.257   0.275   0.274   0.273   0.272   0.260   0.261
   15 105    29     516     241       0       4      31       0       0       0     200    0.00     0.0     0.0    0.00    0.00   0.110   0.209   0.256   0.274   0.274   0.273   0.272   0.260   0.261
   15 106    30     515     240       0       4      32       0       0       0     200    0.00     0.0     0.0    0.00    0.00   0.105   0.203   0.254   0.274   0.274   0.273   0.272   0.260   0.261
   15 107    31     536     260       0       4      56       0       0       0     200    0.00     0.0     0.0    0.21    0.00   0.308   0.285   0.270   0.279   0.277   0.271   0.271   0.259   0.260
   15 108    32     532     256       0       5      56       0       0       0     200    0.00     0.0     0.0    0.00    0.00   0.259   0.260   0.264   0.276   0.276   0.273   0.273   0.261   0.262
   15 109    33     528     252       0       5      56       0       0       0     200    0.00     0.0     0.0    0.00    0.00   0.232   0.247   0.260   0.274   0.275   0.273   0.273   0.261   0.261
   15 110    34     526     251       0       5      56       0       0       0     200    0.00     0.0     0.0    0.00    0.00   0.209   0.242   0.259   0.274   0.275   0.273   0.273   0.261   0.261
   15 111    35     524     249       0       5      56       0       0       0     200    0.00     0.0     0.0    0.00    0.00   0.188   0.237   0.258   0.274   0.275   0.273   0.273   0.261   0.261
   15 112    36     523     247       0       5      56       0       0       0     200    0.00     0.0     0.0    0.00    0.00   0.168   0.233   0.256   0.274   0.275   0.273   0.273   0.261   0.261
   15 113    37     521     246       0       5      56       0       0       0     200    0.00     0.0     0.0    0.00    0.00   0.152   0.229   0.255   0.274   0.275   0.273   0.273   0.261   0.261
   15 114    38     520     244       0       5      56       0       0       0     200    0.00     0.0     0.0    0.00    0.00   0.139   0.223   0.253   0.274   0.275   0.273   0.273   0.261   0.261
   15 115    39     520     244       0       5      57       0       0       0     200    0.00     0.0     0.0    0.00    0.00   0.157   0.218   0.251   0.273   0.275   0.273   0.273   0.261   0.261
   15 116    40     520     244       0       5      59       0       0       0     200    0.00     0.0     0.0    0.00    0.00   0.172   0.213   0.249   0.273   0.274   0.273   0.273   0.261   0.261
   15 117    41     523     248       0       5      65       0       0       0     200    0.00     0.0     0.0    0.00    0.00   0.242   0.220   0.247   0.273   0.274   0.273   0.273   0.261   0.261
   15 118    42     527     251       0       5      71       0       0       0     200    0.00     0.0     0.0    0.00    0.00   0.298   0.243   0.245   0.271   0.273   0.272   0.272   0.261   0.261
   15 119    43     523     248       0       5      71       0       0       0     200    0.00     0.0     0.0    0.00    0.00   0.251   0.240   0.249   0.269   0.272   0.271   0.271   0.260   0.260
   15 120    44     521     245       0       5      72       0       0       0     200    0.00     0.0     0.0    0.00    0.00   0.241   0.241   0.245   0.267   0.271   0.269   0.270   0.259   0.260
   15 121    45     547     271       3       5     103       0       0       0     200    0.00     0.0     0.0    3.28    0.00   0.311   0.317   0.303   0.292   0.281   0.273   0.270   0.259   0.260
   15 122    46     545     270       3       5     104       0       0       0     200    0.00     0.0     0.0    0.00    0.00   0.280   0.288   0.295   0.301   0.291   0.279   0.275   0.258   0.259
   15 123    47     554     278       4       5     116       0       0       0     200    0.00     0.0     0.0    0.13    0.00   0.308   0.308   0.298   0.306   0.298   0.284   0.279   0.260   0.259
   15 124    48     540     264       4      16     116       0       0       0     200    0.00     0.0     0.0    0.00    0.00   0.257   0.270   0.276   0.289   0.286   0.278   0.276   0.261   0.262
   15 125    49     538     262       4      16     120       0       0       0     200    0.00     0.0     0.0    0.00    0.00   0.265   0.259   0.270   0.286   0.286   0.279   0.277   0.262   0.261
   15 126    50     558     283       6      16     145       0       0       0     200    0.00     0.0     0.0    2.51    0.00   0.308   0.314   0.310   0.305   0.295   0.283   0.280   0.264   0.260
   15 127    51     541     266       6      29     145       0       0       0     200    0.00     0.0     0.0    0.00    0.00   0.256   0.272   0.282   0.288   0.284   0.278   0.276   0.263   0.261
   15 128    52     532     256       6      34     145       0       0       0     200    0.00     0.0     0.0    0.00    0.00   0.226   0.250   0.266   0.279   0.278   0.274   0.275   0.263   0.261
   15 129    53     533     257       6      34     150       0       0       0     200    0.00     0.0     0.0    0.00    0.00   0.269   0.251   0.264   0.278   0.278   0.276   0.274   0.262   0.261
   15 130    54     528     252       6      34     150       0       0       0     200    0.00     0.0     0.0    0.00    0.00   0.235   0.241   0.259   0.275   0.276   0.275   0.273   0.261   0.261
   15 131    55     523     247       6      34     150       0       0       0     200    0.00     0.0     0.0    0.00    0.00   0.215   0.230   0.253   0.272   0.274   0.273   0.272   0.260   0.261
   15 132    56     520     245       6      34     150       0       0       0     200    0.01     0.0     0.0    0.00    0.00   0.191   0.224   0.249   0.270   0.274   0.273   0.272   0.260   0.261
   15 133    57     522     247       6      34     156       0       0       0     200    0.01     0.0     0.0    0.00    0.00   0.266   0.234   0.244   0.267   0.272   0.272   0.271   0.259   0.260
   15 134    58     520     244       6      34     157       0       0       0     200    0.01     0.0     0.0    0.00    0.00   0.247   0.238   0.240   0.265   0.270   0.271   0.270   0.259   0.259
   15 135    59     517     241       6      34     158       0       0       0     200    0.01     0.0     0.0    0.00    0.00   0.234   0.237   0.236   0.263   0.269   0.270   0.269   0.258   0.259
   15 136    60     514     239       6      34     158       0       0       0     200    0.01     0.0     0.0    0.00    0.00   0.210   0.231   0.233   0.261   0.268   0.270   0.269   0.258   0.259
   15 137    61     513     238       6      34     159       0       0       0     200    0.01     0.0     0.0    0.00    0.00   0.211   0.226   0.231   0.260   0.268   0.270   0.269   0.258   0.259
   15 138    62     511     235       6      34     159       0       0       0     200    0.01     0.0     0.0    0.00    0.00   0.188   0.220   0.227   0.259   0.267   0.270   0.269   0.258   0.259
   15 139    63     523     248       6      34     175       0       0       0     200    0.02     0.0     0.0    0.03    0.00   0.306   0.275   0.247   0.256   0.265   0.269   0.268   0.257   0.258
   15 140    64     540     264       8      34     196       0       0       0     200    0.02     0.0     0.0    1.50    0.00   0.312   0.316   0.297   0.283   0.273   0.268   0.268   0.257   0.258
   15 141    65     538     263       8      34     197       0       0       0     200    0.02     0.0     0.0    0.00    0.00   0.279   0.287   0.291   0.294   0.283   0.274   0.267   0.257   0.258
   15 142    66     533     258       8      35     197       0       0       0     200    0.02     0.0     0.0    0.00    0.00   0.242   0.259   0.272   0.282   0.278   0.273   0.273   0.261   0.261
   15 143    67     533     257       8      35     200       0       0       0     200    0.02     0.0     0.0    0.00    0.00   0.260   0.253   0.267   0.281   0.279   0.275   0.272   0.261   0.261
   15 144    68     531     255       8      35     202       0       0       0     200    0.02     0.0     0.0    0.00    0.00   0.252   0.249   0.263   0.279   0.278   0.275   0.274   0.260   0.261
   15 145    69     527     252       8      35     202       0       0       0     200    0.02     0.0     0.0    0.00    0.00   0.239   0.244   0.259   0.275   0.276   0.276   0.273   0.260   0.260
   15 146    70     524     248       8      35     202       0       0       0     200    0.02     0.0     0.0    0.00    0.00   0.227   0.237   0.255   0.273   0.274   0.275   0.272   0.259   0.260
   15 147    71     520     245       8      35     202       0       0       0     200    0.02     0.0     0.0    0.00    0.00   0.214   0.230   0.250   0.270   0.272   0.274   0.271   0.258   0.259
   15 148    72     517     242       8      35     202       0       0       0     200    0.02     0.0     0.0    0.00    0.00   0.190   0.223   0.246   0.268   0.271   0.273   0.271   0.258   0.259
   15 149    73     514     238       8      35     202       0       0       0     200    0.02     0.0     0.0    0.00    0.00   0.167   0.215   0.241   0.266   0.270   0.273   0.271   0.258   0.259
   15 150    74     512     236       8      35     203       0       0       0     200    0.02     0.0     0.0    0.00    0.00   0.152   0.210   0.238   0.264   0.269   0.272   0.271   0.258   0.259
   15 151    75     509     233       8      35     203       0       0       0     200    0.02     0.0     0.0    0.00    0.00   0.138   0.202   0.234   0.262   0.267   0.272   0.271   0.258   0.259
   15 152    76     506     230       8      35     203       0       0       0     200    0.02     0.0     0.0    0.00    0.00   0.131   0.193   0.228   0.259   0.265   0.271   0.271   0.258   0.259
   15 153    77     503     227       8      35     203       0       0       0     200    0.02     0.0     0.0    0.00    0.00   0.122   0.185   0.223   0.256   0.263   0.270   0.271   0.258   0.259
   15 154    78     499     224       8      35     203       0       0       0     200    0.03     0.0     0.0    0.00    0.00   0.114   0.174   0.216   0.252   0.261   0.269   0.271   0.258   0.259
   15 155    79     496     220       8      35     203       0       0       0     200    0.03     0.0     0.0    0.00    0.00   0.106   0.165   0.210   0.249   0.258   0.268   0.271   0.258   0.259
   15 156    80     493     217       8      35     203       0       0       0     200    0.03     0.0     0.0    0.00    0.00   0.100   0.159   0.202   0.245   0.255   0.267   0.271   0.258   0.259
   15 157    81     492     217       8      35     206       0       0       0     200    0.04     0.0     0.0    0.00    0.00   0.162   0.155   0.193   0.239   0.251   0.266   0.271   0.258   0.259
   15 158    82     489     213       8      35     206       0       0       0     200    0.04     0.0     0.0    0.00    0.00   0.140   0.153   0.186   0.236   0.249   0.264   0.270   0.258   0.259
   15 159    83     502     226       8      35     223       0       0       0     200    0.04     0.0     0.0    0.00    0.00   0.302   0.226   0.182   0.232   0.246   0.263   0.270   0.258   0.259
   15 160    84     501     225       8      35     224       0       0       0     200    0.04     0.0     0.0    0.00    0.00   0.273   0.240   0.180   0.230   0.245   0.262   0.270   0.258   0.259
   15 161    85     497     222       8      35     224       0       0       0     200    0.04     0.0     0.0    0.00    0.00   0.240   0.239   0.179   0.227   0.242   0.261   0.269   0.258   0.259
   15 162    86     493     218       8      35     224       0       0       0     200    0.04     0.0     0.0    0.00    0.00   0.222   0.230   0.177   0.223   0.239   0.259   0.268   0.257   0.258
   15 163    87     489     213       8      35     224       0       0       0     200    0.04     0.0     0.0    0.00    0.00   0.192   0.219   0.175   0.219   0.236   0.258   0.268   0.257   0.258
   15 164    88     493     217       8      35     233       0       0       0     200    0.04     0.0     0.0    0.00    0.00   0.289   0.237   0.172   0.215   0.233   0.256   0.266   0.257   0.258
   15 165    89     508     232       9      35     253       0       0       0     200    0.04     0.0     0.0    0.94    0.00   0.301   0.309   0.236   0.211   0.230   0.254   0.265   0.256   0.257
   15 166    90     525     250      10      35     275       0       0       0     200    0.04     0.0     0.0    1.82    0.00   0.312   0.316   0.305   0.255   0.228   0.253   0.265   0.256   0.257
   15 167    91     521     246      10      35     275       0       0       0     200    0.04     0.0     0.0    0.00    0.00   0.261   0.274   0.278   0.273   0.262   0.251   0.264   0.255   0.257
   15 168    92     517     242      10      35     275       0       0       0     200    0.04     0.0     0.0    0.00    0.00   0.234   0.252   0.265   0.273   0.273   0.253   0.263   0.255   0.256
   15 169    93     525     250      10      35     287       0       0       0     200    0.04     0.0     0.0    0.00    0.00   0.308   0.280   0.272   0.279   0.275   0.253   0.262   0.254   0.256
[...]
   15 123    47     554     278       4       5     116       0       0       0     200    0.00     0.0     0.0    0.13    0.00   0.308   0.308   0.298   0.306   0.298   0.284   0.279   0.260   0.259
   15 124    48     540     264       4      16     116       0       0       0     200    0.00     0.0     0.0    0.00    0.00   0.257   0.270   0.276   0.289   0.286   0.278   0.276   0.261   0.262
   15 125    49     538     262       4      16     120       0       0       0     200    0.00     0.0     0.0    0.00    0.00   0.265   0.259   0.270   0.286   0.286   0.279   0.277   0.262   0.261
   15 126    50     558     283       6      16     145       0       0       0     200    0.00     0.0     0.0    2.51    0.00   0.308   0.314   0.310   0.305   0.295   0.283   0.280   0.264   0.260
   15 127    51     541     266       6      29     145       0       0       0     200    0.00     0.0     0.0    0.00    0.00   0.256   0.272   0.282   0.288   0.284   0.278   0.276   0.263   0.261
   15 128    52     532     256       6      34     145       0       0       0     200    0.00     0.0     0.0    0.00    0.00   0.226   0.250   0.266   0.279   0.278   0.274   0.275   0.263   0.261
   15 129    53     533     257       6      34     150       0       0       0     200    0.00     0.0     0.0    0.00    0.00   0.269   0.251   0.264   0.278   0.278   0.276   0.274   0.262   0.261
   15 130    54     528     252       6      34     150       0       0       0     200    0.00     0.0     0.0    0.00    0.00   0.235   0.241   0.259   0.275   0.276   0.275   0.273   0.261   0.261
   15 131    55     523     247       6      34     150       0       0       0     200    0.00     0.0     0.0    0.00    0.00   0.215   0.230   0.253   0.272   0.274   0.273   0.272   0.260   0.261
   15 132    56     520     245       6      34     150       0       0       0     200    0.01     0.0     0.0    0.00    0.00   0.191   0.224   0.249   0.270   0.274   0.273   0.272   0.260   0.261
   15 133    57     522     247       6      34     156       0       0       0     200    0.01     0.0     0.0    0.00    0.00   0.266   0.234   0.244   0.267   0.272   0.272   0.271   0.259   0.260
   15 134    58     520     244       6      34     157       0       0       0     200    0.01     0.0     0.0    0.00    0.00   0.247   0.238   0.240   0.265   0.270   0.271   0.270   0.259   0.259
   15 135    59     517     241       6      34     158       0       0       0     200    0.01     0.0     0.0    0.00    0.00   0.234   0.237   0.236   0.263   0.269   0.270   0.269   0.258   0.259
   15 136    60     514     239       6      34     158       0       0       0     200    0.01     0.0     0.0    0.00    0.00   0.210   0.231   0.233   0.261   0.268   0.270   0.269   0.258   0.259
   15 137    61     513     238       6      34     159       0       0       0     200    0.01     0.0     0.0    0.00    0.00   0.211   0.226   0.231   0.260   0.268   0.270   0.269   0.258   0.259
   15 138    62     511     235       6      34     159       0       0       0     200    0.01     0.0     0.0    0.00    0.00   0.188   0.220   0.227   0.259   0.267   0.270   0.269   0.258   0.259
   15 139    63     523     248       6      34     175       0       0       0     200    0.02     0.0     0.0    0.03    0.00   0.306   0.275   0.247   0.256   0.265   0.269   0.268   0.257   0.258
   15 140    64     540     264       8      34     196       0       0       0     200    0.02     0.0     0.0    1.50    0.00   0.312   0.316   0.297   0.283   0.273   0.268   0.268   0.257   0.258
   15 141    65     538     263       8      34     197       0       0       0     200    0.02     0.0     0.0    0.00    0.00   0.279   0.287   0.291   0.294   0.283   0.274   0.267   0.257   0.258
   15 142    66     533     258       8      35     197       0       0       0     200    0.02     0.0     0.0    0.00    0.00   0.242   0.259   0.272   0.282   0.278   0.273   0.273   0.261   0.261
   15 143    67     533     257       8      35     200       0       0       0     200    0.02     0.0     0.0    0.00    0.00   0.260   0.253   0.267   0.281   0.279   0.275   0.272   0.261   0.261
   15 144    68     531     255       8      35     202       0       0       0     200    0.02     0.0     0.0    0.00    0.00   0.252   0.249   0.263   0.279   0.278   0.275   0.274   0.260   0.261
   15 145    69     527     252       8      35     202       0       0       0     200    0.02     0.0     0.0    0.00    0.00   0.239   0.244   0.259   0.275   0.276   0.276   0.273   0.260   0.260
   15 146    70     524     248       8      35     202       0       0       0     200    0.02     0.0     0.0    0.00    0.00   0.227   0.237   0.255   0.273   0.274   0.275   0.272   0.259   0.260
   15 147    71     520     245       8      35     202       0       0       0     200    0.02     0.0     0.0    0.00    0.00   0.214   0.230   0.250   0.270   0.272   0.274   0.271   0.258   0.259
   15 148    72     517     242       8      35     202       0       0       0     200    0.02     0.0     0.0    0.00    0.00   0.190   0.223   0.246   0.268   0.271   0.273   0.271   0.258   0.259
   15 149    73     514     238       8      35     202       0       0       0     200    0.02     0.0     0.0    0.00    0.00   0.167   0.215   0.241   0.266   0.270   0.273   0.271   0.258   0.259
   15 150    74     512     236       8      35     203       0       0       0     200    0.02     0.0     0.0    0.00    0.00   0.152   0.210   0.238   0.264   0.269   0.272   0.271   0.258   0.259
   15 151    75     509     233       8      35     203       0       0       0     200    0.02     0.0     0.0    0.00    0.00   0.138   0.202   0.234   0.262   0.267   0.272   0.271   0.258   0.259
   15 152    76     506     230       8      35     203       0       0       0     200    0.02     0.0     0.0    0.00    0.00   0.131   0.193   0.228   0.259   0.265   0.271   0.271   0.258   0.259
   15 153    77     503     227       8      35     203       0       0       0     200    0.02     0.0     0.0    0.00    0.00   0.122   0.185   0.223   0.256   0.263   0.270   0.271   0.258   0.259
   15 154    78     499     224       8      35     203       0       0       0     200    0.03     0.0     0.0    0.00    0.00   0.114   0.174   0.216   0.252   0.261   0.269   0.271   0.258   0.259
   15 155    79     496     220       8      35     203       0       0       0     200    0.03     0.0     0.0    0.00    0.00   0.106   0.165   0.210   0.249   0.258   0.268   0.271   0.258   0.259
   15 156    80     493     217       8      35     203       0       0       0     200    0.03     0.0     0.0    0.00    0.00   0.100   0.159   0.202   0.245   0.255   0.267   0.271   0.258   0.259
   15 157    81     492     217       8      35     206       0       0       0     200    0.04     0.0     0.0    0.00    0.00   0.162   0.155   0.193   0.239   0.251   0.266   0.271   0.258   0.259
   15 158    82     489     213       8      35     206       0       0       0     200    0.04     0.0     0.0    0.00    0.00   0.140   0.153   0.186   0.236   0.249   0.264   0.270   0.258   0.259
   15 159    83     502     226       8      35     223       0       0       0     200    0.04     0.0     0.0    0.00    0.00   0.302   0.226   0.182   0.232   0.246   0.263   0.270   0.258   0.259
   15 160    84     501     225       8      35     224       0       0       0     200    0.04     0.0     0.0    0.00    0.00   0.273   0.240   0.180   0.230   0.245   0.262   0.270   0.258   0.259
   15 161    85     497     222       8      35     224       0       0       0     200    0.04     0.0     0.0    0.00    0.00   0.240   0.239   0.179   0.227   0.242   0.261   0.269   0.258   0.259
   15 162    86     493     218       8      35     224       0       0       0     200    0.04     0.0     0.0    0.00    0.00   0.222   0.230   0.177   0.223   0.239   0.259   0.268   0.257   0.258
   15 163    87     489     213       8      35     224       0       0       0     200    0.04     0.0     0.0    0.00    0.00   0.192   0.219   0.175   0.219   0.236   0.258   0.268   0.257   0.258
   15 164    88     493     217       8      35     233       0       0       0     200    0.04     0.0     0.0    0.00    0.00   0.289   0.237   0.172   0.215   0.233   0.256   0.266   0.257   0.258
   15 165    89     508     232       9      35     253       0       0       0     200    0.04     0.0     0.0    0.94    0.00   0.301   0.309   0.236   0.211   0.230   0.254   0.265   0.256   0.257
   15 166    90     525     250      10      35     275       0       0       0     200    0.04     0.0     0.0    1.82    0.00   0.312   0.316   0.305   0.255   0.228   0.253   0.265   0.256   0.257
   15 167    91     521     246      10      35     275       0       0       0     200    0.04     0.0     0.0    0.00    0.00   0.261   0.274   0.278   0.273   0.262   0.251   0.264   0.255   0.257
   15 168    92     517     242      10      35     275       0       0       0     200    0.04     0.0     0.0    0.00    0.00   0.234   0.252   0.265   0.273   0.273   0.253   0.263   0.255   0.256
   15 169    93     525     250      10      35     287       0       0       0     200    0.04     0.0     0.0    0.00    0.00   0.308   0.280   0.272   0.279   0.275   0.253   0.262   0.254   0.256
   15 170    94     523     247      10      35     287       0       0       0     200    0.04     0.0     0.0    0.00    0.00   0.262   0.258   0.263   0.277   0.274   0.272   0.261   0.254   0.256
   15 171    95     520     245      10      35     288       0       0       0     200    0.04     0.0     0.0    0.00    0.00   0.248   0.251   0.262   0.276   0.275   0.271   0.260   0.254   0.255
   15 172    96     517     241      10      35     288       0       0       0     200    0.04     0.0     0.0    0.00    0.00   0.236   0.244   0.259   0.275   0.272   0.270   0.259   0.253   0.255
   15 173    97     523     247      10      35     298       0       0       0     200    0.04     0.0     0.0    0.00    0.00   0.307   0.267   0.264   0.276   0.273   0.268   0.258   0.253   0.255
   15 174    98     522     247      10      35     301       0       0       0     200    0.04     0.0     0.0    0.00    0.00   0.293   0.264   0.267   0.278   0.275   0.267   0.258   0.252   0.254
   15 175    99     518     242      10      35     301       0       0       0     200    0.04     0.0     0.0    0.00    0.00   0.248   0.247   0.259   0.274   0.273   0.272   0.262   0.252   0.254
   15 176   100     512     237      10      35     301       0       0       0     200    0.04     0.0     0.0    0.00    0.00   0.225   0.237   0.254   0.270   0.270   0.270   0.260   0.251   0.253
   15 177   101     508     233      10      35     301       0       0       0     200    0.04     0.0     0.0    0.00    0.00   0.200   0.230   0.249   0.267   0.268   0.269   0.260   0.251   0.253
   15 178   102     506     231      10      35     302       0       0       0     200    0.04     0.0     0.0    0.00    0.00   0.196   0.224   0.246   0.265   0.266   0.268   0.259   0.251   0.253
   15 179   103     503     227      10      35     302       0       0       0     200    0.04     0.0     0.0    0.00    0.00   0.175   0.217   0.242   0.263   0.264   0.267   0.259   0.251   0.253
   15 180   104     500     224      10      35     302       0       0       0     200    0.04     0.0     0.0    0.00    0.00   0.155   0.211   0.237   0.260   0.262   0.266   0.258   0.251   0.253
   15 181   105     496     220      10      35     302       0       0       0     200    0.04     0.0     0.0    0.00    0.00   0.139   0.202   0.232   0.257   0.259   0.264   0.257   0.251   0.253
   15 182   106     492     217      10      35     302       0       0       0     200    0.04     0.0     0.0    0.00    0.00   0.129   0.194   0.226   0.254   0.257   0.263   0.256   0.251   0.253
   15 183   107     489     213      10      35     302       0       0       0     200    0.04     0.0     0.0    0.00    0.00   0.120   0.185   0.221   0.250   0.254   0.261   0.255   0.251   0.253
   15 184   108     485     209      10      35     302       0       0       0     200    0.04     0.0     0.0    0.00    0.00   0.112   0.176   0.214   0.247   0.251   0.260   0.254   0.251   0.253
   15 185   109     481     206      10      35     302       0       0       0     200    0.03     0.0     0.0    0.00    0.00   0.105   0.167   0.208   0.243   0.248   0.258   0.253   0.251   0.253
   15 186   110     478     202      10      35     302       0       0       0     200    0.03     0.0     0.0    0.00    0.00   0.098   0.161   0.201   0.239   0.245   0.256   0.252   0.251   0.253
   15 187   111     475     200      10      35     303       0       0       0     200    0.04     0.0     0.0    0.00    0.00   0.107   0.158   0.196   0.236   0.242   0.254   0.251   0.251   0.253
   15 188   112     476     200      10      35     307       0       0       0     200    0.04     0.0     0.0    0.00    0.00   0.186   0.155   0.188   0.231   0.239   0.252   0.250   0.251   0.253
   15 189   113     480     204      10      35     314       0       0       0     200    0.04     0.0     0.0    0.00    0.00   0.259   0.173   0.185   0.229   0.237   0.251   0.249   0.251   0.253
   15 190   114     476     200      10      35     314       0       0       0     200    0.04     0.0     0.0    0.00    0.00   0.235   0.172   0.182   0.225   0.234   0.249   0.248   0.250   0.253
   15 191   115     472     197      10      35     314       0       0       0     200    0.04     0.0     0.0    0.00    0.00   0.209   0.166   0.180   0.223   0.232   0.248   0.247   0.250   0.253
   15 192   116     469     193      10      35     314       0       0       0     200    0.04     0.0     0.0    0.00    0.00   0.184   0.161   0.177   0.219   0.228   0.246   0.246   0.250   0.253
   15 193   117     465     189      10      35     314       0       0       0     200    0.04     0.0     0.0    0.00    0.00   0.160   0.157   0.175   0.215   0.225   0.244   0.245   0.250   0.253
   15 194   118     464     188      10      35     315       0       0       0     200    0.04     0.0     0.0    0.00    0.00   0.162   0.156   0.174   0.212   0.223   0.243   0.244   0.250   0.253
   15 195   119     461     185      10      35     315       0       0       0     200    0.04     0.0     0.0    0.00    0.00   0.141   0.153   0.173   0.209   0.221   0.242   0.243   0.250   0.253
   15 196   120     458     182      10      35     315       0       0       0     200    0.04     0.0     0.0    0.00    0.00   0.130   0.151   0.171   0.205   0.217   0.240   0.242   0.250   0.253
   15 197   121     455     179      10      35     315       0       0       0     200    0.04     0.0     0.0    0.00    0.00   0.120   0.149   0.170   0.200   0.212   0.237   0.240   0.250   0.253
   15 198   122     451     175      10      35     315       0       0       0     200    0.04     0.0     0.0    0.00    0.00   0.112   0.146   0.168   0.197   0.206   0.233   0.237   0.250   0.253
   15 199   123     448     173      10      35     316       0       0       0     200    0.04     0.0     0.0    0.00    0.00   0.112   0.144   0.166   0.194   0.201   0.230   0.235   0.249   0.253
   15 200   124     446     170      10      35     316       0       0       0     200    0.04     0.0     0.0    0.00    0.00   0.114   0.143   0.165   0.192   0.198   0.226   0.233   0.249   0.253
   15 201   125     444     168      10      35     316       0       0       0     200    0.04     0.0     0.0    0.00    0.00   0.107   0.141   0.163   0.190   0.196   0.223   0.231   0.249   0.253
   15 202   126     441     165      10      35     316       0       0       0     200    0.04     0.0     0.0    0.00    0.00   0.100   0.139   0.162   0.188   0.193   0.218   0.228   0.249   0.253
   15 203   127     437     162      10      35     316       0       0       0     200    0.04     0.0     0.0    0.00    0.00   0.094   0.138   0.160   0.186   0.191   0.213   0.225   0.249   0.253
   15 204   128     437     161      10      35     318       0       0       0     200    0.04     0.0     0.0    0.00    0.00   0.115   0.136   0.159   0.185   0.190   0.210   0.223   0.249   0.253
   15 205   129     434     159      10      35     318       0       0       0     200    0.04     0.0     0.0    0.00    0.00   0.108   0.135   0.158   0.184   0.188   0.205   0.220   0.249   0.253
   15 206   130     432     157      10      35     318       0       0       0     200    0.04     0.0     0.0    0.00    0.00   0.105   0.134   0.157   0.183   0.187   0.202   0.217   0.249   0.253
   15 207   131     431     155      10      35     319       0       0       0     200    0.04     0.0     0.0    0.00    0.00   0.115   0.133   0.156   0.181   0.185   0.199   0.214   0.249   0.253
   15 208   132     432     156      10      35     322       0       0       0     200    0.04     0.0     0.0    0.00    0.00   0.174   0.132   0.155   0.180   0.184   0.197   0.210   0.249   0.253
   15 209   133     431     155      10      35     324       0       0       0     200    0.04     0.0     0.0    0.00    0.00   0.171   0.131   0.155   0.180   0.184   0.196   0.209   0.248   0.253
   15 210   134     430     154      10      35     325       0       0       0     200    0.04     0.0     0.0    0.00    0.00   0.162   0.130   0.154   0.179   0.183   0.195   0.207   0.248   0.253
   15 211   135     427     152      10      35     325       0       0       0     200    0.04     0.0     0.0    0.00    0.00   0.133   0.129   0.154   0.179   0.183   0.194   0.206   0.248   0.253
   15 212   136     425     150      10      35     325       0       0       0     200    0.04     0.0     0.0    0.00    0.00   0.121   0.128   0.153   0.178   0.181   0.192   0.203   0.248   0.253
   15 213   137     424     148      10      35     325       0       0       0     200    0.04     0.0     0.0    0.00    0.00   0.113   0.127   0.152   0.177   0.181   0.191   0.201   0.248   0.253
   15 214   138     422     147      10      35     325       0       0       0     200    0.04     0.0     0.0    0.00    0.00   0.107   0.126   0.151   0.176   0.180   0.190   0.199   0.248   0.253
   15 215   139     421     145      10      35     325       0       0       0     200    0.04     0.0     0.0    0.00    0.00   0.101   0.125   0.151   0.175   0.179   0.189   0.198   0.248   0.253
   15 216   140     420     144      10      35     325       0       0       0     200    0.04     0.0     0.0    0.00    0.00   0.095   0.124   0.150   0.174   0.178   0.188   0.197   0.248   0.253
   15 217   141     418     143      10      35     325       0       0       0     200    0.04     0.0     0.0    0.00    0.00   0.089   0.124   0.149   0.174   0.177   0.187   0.195   0.248   0.253
   15 218   142     417     142      10      35     325       0       0       0     200    0.04     0.0     0.0    0.00    0.00   0.084   0.123   0.149   0.173   0.176   0.186   0.194   0.247   0.253
   15 219   143     416     141      10      35     325       0       0       0     200    0.04     0.0     0.0    0.00    0.00   0.079   0.122   0.148   0.172   0.176   0.185   0.193   0.247   0.253
   15 220   144     417     141      10      35     327       0       0       0     200    0.04     0.0     0.0    0.00    0.00   0.111   0.121   0.147   0.172   0.175   0.184   0.192   0.247   0.253
   15 221   145     416     140      10      35     327       0       0       0     200    0.04     0.0     0.0    0.00    0.00   0.104   0.121   0.147   0.171   0.175   0.183   0.191   0.247   0.253
