*SOIL INORGANIC N BALANCE

*DSSAT Cropping System Model Ver. 4.8.5.000 -release  OCT 24, 2025 14:14:59

*RUN   1        : 1                         CSCER048 TUDU1501    1
 MODEL          : CSCER048 - Wheat
 EXPERIMENT     : TUDU1501 WH
 DATA PATH      :
 TREATMENT  1   : 1                         CSCER048
  


!SOIL INORGANIC N BALANCE                         Initial               Final
!                                                Year/Doy            Year/Doy
!                                                  15/077              15/221
!                                               (kg[N]/ha)          (kg[N]/ha)
! Soil N state variables:
!   Soil NO3                                        22.03               70.25
!   Soil NH4                                         9.33                1.39
!   Soil Urea                                        0.00                0.00
!   Soil N gases                                     0.00                0.03
!   Unreleased fert N                                                    0.00

! N additions:
!   Fertilizer N                                   120.00
!   Mineralized N                                   38.88

! N subtractions:
!   N immobilized                                                        0.49
!   N leached                                                            1.75
!   N loss to tile drainage                                              0.00
!   N Uptake From Soil                                                  83.40
!   NH3 loss                                                            32.11
!   N2O loss                                                             0.15
!   N2 loss                                                              0.20
!   NO loss                                                              0.47

!   Total N balance                                190.23              190.23
!   Balance                                                            -0.000

!===============================================================================

*DSSAT Cropping System Model Ver. 4.8.5.000 -release  OCT 24, 2025 14:14:59

*RUN   2        : 2                         CSCER048 TUDU1501    2
 MODEL          : CSCER048 - Wheat
 EXPERIMENT     : TUDU1501 WH
 DATA PATH      :
 TREATMENT  2   : 2                         CSCER048
  


!SOIL INORGANIC N BALANCE                         Initial               Final
!                                                Year/Doy            Year/Doy
!                                                  15/077              15/221
!                                               (kg[N]/ha)          (kg[N]/ha)
! Soil N state variables:
!   Soil NO3                                        22.03               98.83
!   Soil NH4                                         9.33                1.46
!   Soil Urea                                        0.00                0.00
!   Soil N gases                                     0.00                0.03
!   Unreleased fert N                                                    0.00

! N additions:
!   Fertilizer N                                   120.00
!   Mineralized N                                   38.83

! N subtractions:
!   N immobilized                                                        0.49
!   N leached                                                            1.74
!   N loss to tile drainage                                              0.00
!   N Uptake From Soil                                                  86.78
!   NH3 loss                                                             0.00
!   N2O loss                                                             0.15
!   N2 loss                                                              0.21
!   NO loss                                                              0.49

!   Total N balance                                190.19              190.19
!   Balance                                                            -0.000

!===============================================================================

*DSSAT Cropping System Model Ver. 4.8.5.000 -release  OCT 24, 2025 14:14:59

*RUN   3        : 3                         CSCER048 TUDU1501    3
 MODEL          : CSCER048 - Wheat
 EXPERIMENT     : TUDU1501 WH
 DATA PATH      :
 TREATMENT  3   : 3                         CSCER048
  


!SOIL INORGANIC N BALANCE                         Initial               Final
!                                                Year/Doy            Year/Doy
!                                                  15/077              15/221
!                                               (kg[N]/ha)          (kg[N]/ha)
! Soil N state variables:
!   Soil NO3                                        22.03               69.07
!   Soil NH4                                         9.33                1.52
!   Soil Urea                                        0.00                0.00
!   Soil N gases                                     0.00                0.03
!   Unreleased fert N                                                    0.00

! N additions:
!   Fertilizer N                                    40.00
!   Mineralized N                                   42.85

! N subtractions:
!   N immobilized                                                        0.41
!   N leached                                                            1.63
!   N loss to tile drainage                                              0.00
!   N Uptake From Soil                                                  40.39
!   NH3 loss                                                             0.90
!   N2O loss                                                             0.05
!   N2 loss                                                              0.04
!   NO loss                                                              0.16

!   Total N balance                                114.21              114.21
!   Balance                                                             0.000

!===============================================================================

*DSSAT Cropping System Model Ver. 4.8.5.000 -release  OCT 24, 2025 14:14:59

*RUN   4        : 4                         CSCER048 TUDU1501    4
 MODEL          : CSCER048 - Wheat
 EXPERIMENT     : TUDU1501 WH
 DATA PATH      :
 TREATMENT  4   : 4                         CSCER048
  


!SOIL INORGANIC N BALANCE                         Initial               Final
!                                                Year/Doy            Year/Doy
!                                                  15/077              15/221
!                                               (kg[N]/ha)          (kg[N]/ha)
! Soil N state variables:
!   Soil NO3                                        22.03               97.61
!   Soil NH4                                         9.33                1.39
!   Soil Urea                                        0.00                0.00
!   Soil N gases                                     0.00                0.03
!   Unreleased fert N                                                    0.00

! N additions:
!   Fertilizer N                                   120.00
!   Mineralized N                                   38.82

! N subtractions:
!   N immobilized                                                        0.49
!   N leached                                                            1.74
!   N loss to tile drainage                                              0.00
!   N Uptake From Soil                                                  86.31
!   NH3 loss                                                             1.94
!   N2O loss                                                             0.12
!   N2 loss                                                              0.21
!   NO loss                                                              0.35

!   Total N balance                                190.18              190.18
!   Balance                                                            -0.000

!===============================================================================

*DSSAT Cropping System Model Ver. 4.8.5.000 -release  OCT 24, 2025 14:14:59

*RUN   5        : 5                         CSCER048 TUDU1501    5
 MODEL          : CSCER048 - Wheat
 EXPERIMENT     : TUDU1501 WH
 DATA PATH      :
 TREATMENT  5   : 5                         CSCER048
  


!SOIL INORGANIC N BALANCE                         Initial               Final
!                                                Year/Doy            Year/Doy
!                                                  15/077              15/221
!                                               (kg[N]/ha)          (kg[N]/ha)
! Soil N state variables:
!   Soil NO3                                        22.03               93.68
!   Soil NH4                                         9.33                1.41
!   Soil Urea                                        0.00                0.00
!   Soil N gases                                     0.00                0.03
!   Unreleased fert N                                                    0.00

! N additions:
!   Fertilizer N                                   120.00
!   Mineralized N                                   38.82

! N subtractions:
!   N immobilized                                                        0.49
!   N leached                                                            1.74
!   N loss to tile drainage                                              0.00
!   N Uptake From Soil                                                  89.77
!   NH3 loss                                                             1.90
!   N2O loss                                                             0.23
!   N2 loss                                                              0.30
!   NO loss                                                              0.62

!   Total N balance                                190.17              190.17
!   Balance                                                            -0.000

!===============================================================================

*DSSAT Cropping System Model Ver. 4.8.5.000 -release  OCT 24, 2025 14:14:59

*RUN   6        : 6                         CSCER048 TUDU1501    6
 MODEL          : CSCER048 - Wheat
 EXPERIMENT     : TUDU1501 WH
 DATA PATH      :
 TREATMENT  6   : 6                         CSCER048
  


!SOIL INORGANIC N BALANCE                         Initial               Final
!                                                Year/Doy            Year/Doy
!                                                  15/077              15/221
!                                               (kg[N]/ha)          (kg[N]/ha)
! Soil N state variables:
!   Soil NO3                                        22.03               78.97
!   Soil NH4                                         9.33                1.39
!   Soil Urea                                        0.00                0.00
!   Soil N gases                                     0.00                0.03
!   Unreleased fert N                                                    0.00

! N additions:
!   Fertilizer N                                   120.00
!   Mineralized N                                   38.84

! N subtractions:
!   N immobilized                                                        0.49
!   N leached                                                            1.74
!   N loss to tile drainage                                              0.00
!   N Uptake From Soil                                                  84.48
!   NH3 loss                                                            22.41
!   N2O loss                                                             0.12
!   N2 loss                                                              0.20
!   NO loss                                                              0.36

!   Total N balance                                190.20              190.20
!   Balance                                                             0.000

!===============================================================================

*DSSAT Cropping System Model Ver. 4.8.5.000 -release  OCT 24, 2025 14:15:00

*RUN   7        : 7                         CSCER048 TUDU1501    7
 MODEL          : CSCER048 - Wheat
 EXPERIMENT     : TUDU1501 WH
 DATA PATH      :
 TREATMENT  7   : 7                         CSCER048
  


!SOIL INORGANIC N BALANCE                         Initial               Final
!                                                Year/Doy            Year/Doy
!                                                  15/077              15/221
!                                               (kg[N]/ha)          (kg[N]/ha)
! Soil N state variables:
!   Soil NO3                                        22.03               90.74
!   Soil NH4                                         9.33                1.39
!   Soil Urea                                        0.00                0.00
!   Soil N gases                                     0.00                0.03
!   Unreleased fert N                                                    0.00

! N additions:
!   Fertilizer N                                   120.00
!   Mineralized N                                   38.71

! N subtractions:
!   N immobilized                                                        0.49
!   N leached                                                            1.73
!   N loss to tile drainage                                              0.00
!   N Uptake From Soil                                                  92.98
!   NH3 loss                                                             1.87
!   N2O loss                                                             0.16
!   N2 loss                                                              0.29
!   NO loss                                                              0.37

!   Total N balance                                190.06              190.06
!   Balance                                                             0.000

!===============================================================================

*DSSAT Cropping System Model Ver. 4.8.5.000 -release  OCT 24, 2025 14:15:00

*RUN   8        : 8                         CSCER048 TUDU1501    8
 MODEL          : CSCER048 - Wheat
 EXPERIMENT     : TUDU1501 WH
 DATA PATH      :
 TREATMENT  8   : 8                         CSCER048
  


!SOIL INORGANIC N BALANCE                         Initial               Final
!                                                Year/Doy            Year/Doy
!                                                  15/077              15/221
!                                               (kg[N]/ha)          (kg[N]/ha)
! Soil N state variables:
!   Soil NO3                                        22.03              113.15
!   Soil NH4                                         9.33                1.41
!   Soil Urea                                        0.00                0.00
!   Soil N gases                                     0.00                0.03
!   Unreleased fert N                                                    0.00

! N additions:
!   Fertilizer N                                   180.00
!   Mineralized N                                   38.72

! N subtractions:
!   N immobilized                                                        0.49
!   N leached                                                            1.74
!   N loss to tile drainage                                              0.00
!   N Uptake From Soil                                                  95.18
!   NH3 loss                                                            36.67
!   N2O loss                                                             0.29
!   N2 loss                                                              0.35
!   NO loss                                                              0.77

!   Total N balance                                250.07              250.07
!   Balance                                                             0.000

!===============================================================================

*DSSAT Cropping System Model Ver. 4.8.5.000 -release  OCT 24, 2025 14:15:00

*RUN   9        : 9                         CSCER048 TUDU1501    9
 MODEL          : CSCER048 - Wheat
 EXPERIMENT     : TUDU1501 WH
 DATA PATH      :
 TREATMENT  9   : 9                         CSCER048
  


!SOIL INORGANIC N BALANCE                         Initial               Final
!                                                Year/Doy            Year/Doy
!                                                  15/077              15/221
!                                               (kg[N]/ha)          (kg[N]/ha)
! Soil N state variables:
!   Soil NO3                                        22.03              147.23
!   Soil NH4                                         9.33                1.48
!   Soil Urea                                        0.00                0.00
!   Soil N gases                                     0.00                0.03
!   Unreleased fert N                                                    0.00

! N additions:
!   Fertilizer N                                   180.00
!   Mineralized N                                   38.73

! N subtractions:
!   N immobilized                                                        0.49
!   N leached                                                            1.74
!   N loss to tile drainage                                              0.00
!   N Uptake From Soil                                                  97.67
!   NH3 loss                                                             0.00
!   N2O loss                                                             0.30
!   N2 loss                                                              0.37
!   NO loss                                                              0.78

!   Total N balance                                250.08              250.08
!   Balance                                                            -0.000

!===============================================================================

*DSSAT Cropping System Model Ver. 4.8.5.000 -release  OCT 24, 2025 14:15:00

*RUN  10        : 10                        CSCER048 TUDU1501   10
 MODEL          : CSCER048 - Wheat
 EXPERIMENT     : TUDU1501 WH
 DATA PATH      :
 TREATMENT 10   : 10                        CSCER048
  


!SOIL INORGANIC N BALANCE                         Initial               Final
!                                                Year/Doy            Year/Doy
!                                                  15/077              15/221
!                                               (kg[N]/ha)          (kg[N]/ha)
! Soil N state variables:
!   Soil NO3                                        22.03               88.40
!   Soil NH4                                         9.33                1.52
!   Soil Urea                                        0.00                0.00
!   Soil N gases                                     0.00                0.03
!   Unreleased fert N                                                    0.00

! N additions:
!   Fertilizer N                                    60.00
!   Mineralized N                                   42.85

! N subtractions:
!   N immobilized                                                        0.41
!   N leached                                                            1.63
!   N loss to tile drainage                                              0.00
!   N Uptake From Soil                                                  40.96
!   NH3 loss                                                             0.93
!   N2O loss                                                             0.06
!   N2 loss                                                              0.04
!   NO loss                                                              0.21

!   Total N balance                                134.20              134.20
!   Balance                                                             0.000

!===============================================================================

*DSSAT Cropping System Model Ver. 4.8.5.000 -release  OCT 24, 2025 14:15:00

*RUN  11        : 11                        CSCER048 TUDU1501   11
 MODEL          : CSCER048 - Wheat
 EXPERIMENT     : TUDU1501 WH
 DATA PATH      :
 TREATMENT 11   : 11                        CSCER048
  


!SOIL INORGANIC N BALANCE                         Initial               Final
!                                                Year/Doy            Year/Doy
!                                                  15/077              15/221
!                                               (kg[N]/ha)          (kg[N]/ha)
! Soil N state variables:
!   Soil NO3                                        22.03              145.93
!   Soil NH4                                         9.33                1.41
!   Soil Urea                                        0.00                0.00
!   Soil N gases                                     0.00                0.03
!   Unreleased fert N                                                    0.00

! N additions:
!   Fertilizer N                                   180.00
!   Mineralized N                                   38.73

! N subtractions:
!   N immobilized                                                        0.49
!   N leached                                                            1.66
!   N loss to tile drainage                                              0.00
!   N Uptake From Soil                                                  97.40
!   NH3 loss                                                             1.96
!   N2O loss                                                             0.26
!   N2 loss                                                              0.37
!   NO loss                                                              0.57

!   Total N balance                                250.08              250.08
!   Balance                                                             0.000

!===============================================================================

*DSSAT Cropping System Model Ver. 4.8.5.000 -release  OCT 24, 2025 14:15:00

*RUN  12        : 12                        CSCER048 TUDU1501   12
 MODEL          : CSCER048 - Wheat
 EXPERIMENT     : TUDU1501 WH
 DATA PATH      :
 TREATMENT 12   : 12                        CSCER048
  


!SOIL INORGANIC N BALANCE                         Initial               Final
!                                                Year/Doy            Year/Doy
!                                                  15/077              15/221
!                                               (kg[N]/ha)          (kg[N]/ha)
! Soil N state variables:
!   Soil NO3                                        22.03              145.56
!   Soil NH4                                         9.33                1.41
!   Soil Urea                                        0.00                0.00
!   Soil N gases                                     0.00                0.03
!   Unreleased fert N                                                    0.00

! N additions:
!   Fertilizer N                                   180.00
!   Mineralized N                                   38.72

! N subtractions:
!   N immobilized                                                        0.49
!   N leached                                                            1.74
!   N loss to tile drainage                                              0.00
!   N Uptake From Soil                                                  97.16
!   NH3 loss                                                             2.15
!   N2O loss                                                             0.32
!   N2 loss                                                              0.37
!   NO loss                                                              0.85

!   Total N balance                                250.07              250.07
!   Balance                                                            -0.000

!===============================================================================

*DSSAT Cropping System Model Ver. 4.8.5.000 -release  OCT 24, 2025 14:15:00

*RUN  13        : 13                        CSCER048 TUDU1501   13
 MODEL          : CSCER048 - Wheat
 EXPERIMENT     : TUDU1501 WH
 DATA PATH      :
 TREATMENT 13   : 13                        CSCER048
  


!SOIL INORGANIC N BALANCE                         Initial               Final
!                                                Year/Doy            Year/Doy
!                                                  15/077              15/221
!                                               (kg[N]/ha)          (kg[N]/ha)
! Soil N state variables:
!   Soil NO3                                        22.03              120.14
!   Soil NH4                                         9.33                1.41
!   Soil Urea                                        0.00                0.00
!   Soil N gases                                     0.00                0.03
!   Unreleased fert N                                                    0.00

! N additions:
!   Fertilizer N                                   180.00
!   Mineralized N                                   38.77

! N subtractions:
!   N immobilized                                                        0.49
!   N leached                                                            1.74
!   N loss to tile drainage                                              0.00
!   N Uptake From Soil                                                  95.91
!   NH3 loss                                                            29.22
!   N2O loss                                                             0.24
!   N2 loss                                                              0.34
!   NO loss                                                              0.60

!   Total N balance                                250.12              250.12
!   Balance                                                             0.000

!===============================================================================

*DSSAT Cropping System Model Ver. 4.8.5.000 -release  OCT 24, 2025 14:15:00

*RUN  14        : 14                        CSCER048 TUDU1501   14
 MODEL          : CSCER048 - Wheat
 EXPERIMENT     : TUDU1501 WH
 DATA PATH      :
 TREATMENT 14   : 14                        CSCER048
  


!SOIL INORGANIC N BALANCE                         Initial               Final
!                                                Year/Doy            Year/Doy
!                                                  15/077              15/221
!                                               (kg[N]/ha)          (kg[N]/ha)
! Soil N state variables:
!   Soil NO3                                        22.03              148.24
!   Soil NH4                                         9.33                1.41
!   Soil Urea                                        0.00                0.00
!   Soil N gases                                     0.00                0.03
!   Unreleased fert N                                                    0.00

! N additions:
!   Fertilizer N                                   180.00
!   Mineralized N                                   38.85

! N subtractions:
!   N immobilized                                                        0.49
!   N leached                                                            1.73
!   N loss to tile drainage                                              0.00
!   N Uptake From Soil                                                  95.26
!   NH3 loss                                                             1.97
!   N2O loss                                                             0.21
!   N2 loss                                                              0.31
!   NO loss                                                              0.55

!   Total N balance                                250.20              250.20
!   Balance                                                             0.000

!===============================================================================

*DSSAT Cropping System Model Ver. 4.8.5.000 -release  OCT 24, 2025 14:15:01

*RUN  15        : 15                        CSCER048 TUDU1501   15
 MODEL          : CSCER048 - Wheat
 EXPERIMENT     : TUDU1501 WH
 DATA PATH      :
 TREATMENT 15   : 15                        CSCER048
  


!SOIL INORGANIC N BALANCE                         Initial               Final
!                                                Year/Doy            Year/Doy
!                                                  15/077              15/221
!                                               (kg[N]/ha)          (kg[N]/ha)
! Soil N state variables:
!   Soil NO3                                        22.03               38.85
!   Soil NH4                                         9.33                1.60
!   Soil Urea                                        0.00                0.00
!   Soil N gases                                     0.00                0.03
!   Unreleased fert N                                                    0.00

! N additions:
!   Fertilizer N                                     0.00
!   Mineralized N                                   42.95

! N subtractions:
!   N immobilized                                                        0.41
!   N leached                                                            1.63
!   N loss to tile drainage                                              0.00
!   N Uptake From Soil                                                  31.65
!   NH3 loss                                                             0.00
!   N2O loss                                                             0.04
!   N2 loss                                                              0.04
!   NO loss                                                              0.07

!   Total N balance                                 74.31               74.31
!   Balance                                                             0.000
