*Soil Inorganic Nitrogen daily output file

*DSSAT Cropping System Model Ver. 4.8.5.000 -release  OCT 24, 2025 14:14:59

*RUN   1        : 1                         CSCER048 TUDU1501    1
 MODEL          : CSCER048 - Wheat
 EXPERIMENT     : TUDU1501 WH
 DATA PATH      :
 TREATMENT  1   : 1                         CSCER048
  
!                                                                                                                                      NO3 (ppm) at soil dep. (cm):                                            NH4 (ppm) at soil dep. (cm):                                            Total Inorganic N @dep(ppm):
!                                                                                                                                       0-5    5-15   15-30   30-45   45-60   60-80  80-100 100-150 150-200     0-5    5-15   15-30   30-45   45-60   60-80  80-100 100-150 150-200     0-5    5-15   15-30   30-45   45-60   60-80  80-100 100-150 150-200
@YEAR DOY   DAS  NAPC  NI#M    NIAD    NITD    NHTD   NURTD    NMNC    NITC    NDNC    NIMC    AMLC   NNMNC    NUCM    NLCC    TDNC    NI1D    NI2D    NI3D    NI4D    NI5D    NI6D    NI7D    NI8D    NI9D    NH1D    NH2D    NH3D    NH4D    NH5D    NH6D    NH7D    NH8D    NH9D    NT1D    NT2D    NT3D    NT4D    NT5D    NT6D    NT7D    NT8D    NT9D    
   15 076     0     0     0    31.4    22.0     9.3     0.0    0.00    0.00    0.00    0.00    0.00    0.00    0.00    0.00    0.00    2.00     1.5     1.2    1.00    1.00    0.80    0.80    0.50    0.50    1.00    0.80    0.60    0.40    0.40    0.30    0.30    0.20    0.20    3.00    2.30    1.80    1.40    1.40    1.10    1.10    0.70    0.70
   15 077     1     0     0    31.3    23.2     8.1     0.0    0.06    1.18    0.00    0.07    0.00   -0.01    0.00    0.00    0.00    2.11     1.6     1.3    1.05    1.05    0.84    0.84    0.53    0.53    0.86    0.68    0.52    0.35    0.35    0.26    0.26    0.18    0.18    2.97    2.27    1.80    1.40    1.40    1.10    1.10    0.70    0.70
   15 078     2     0     0    31.3    24.2     7.1     0.0    0.11    2.16    0.00    0.12    0.00   -0.02    0.00    0.00    0.00    2.23     1.7     1.3    1.09    1.09    0.87    0.87    0.55    0.55    0.74    0.58    0.46    0.30    0.31    0.23    0.23    0.16    0.16    2.97    2.24    1.79    1.40    1.40    1.10    1.10    0.71    0.71
   15 079     3     0     0    31.3    25.0     6.3     0.0    0.15    2.98    0.00    0.16    0.00   -0.01    0.00    0.00    0.00    2.34     1.7     1.4    1.12    1.12    0.90    0.90    0.57    0.57    0.65    0.50    0.41    0.27    0.28    0.20    0.21    0.14    0.14    2.99    2.21    1.79    1.39    1.40    1.10    1.10    0.71    0.71
   15 080     4     0     0    31.3    25.7     5.7     0.0    0.19    3.65    0.00    0.18    0.00    0.01    0.00    0.00    0.00    2.35     1.8     1.4    1.15    1.15    0.92    0.92    0.58    0.58    0.58    0.44    0.37    0.24    0.25    0.18    0.19    0.12    0.13    2.93    2.23    1.78    1.39    1.40    1.10    1.11    0.71    0.71
   15 081     5     0     0    31.4    26.2     5.1     0.0    0.22    4.21    0.00    0.20    0.00    0.02    0.00    0.00    0.00    2.39     1.8     1.4    1.17    1.17    0.94    0.94    0.60    0.60    0.53    0.40    0.33    0.22    0.22    0.16    0.17    0.11    0.12    2.92    2.23    1.78    1.39    1.40    1.10    1.11    0.71    0.71
   15 082     6     0     0    31.4    26.7     4.7     0.0    0.23    4.68    0.00    0.20    0.00    0.03    0.00    0.00    0.00    2.46     1.9     1.5    1.19    1.19    0.95    0.95    0.61    0.61    0.49    0.36    0.31    0.20    0.20    0.15    0.15    0.10    0.10    2.94    2.22    1.78    1.39    1.40    1.10    1.11    0.71    0.72
   15 083     7     0     0    31.4    27.1     4.3     0.0    0.24    5.07    0.00    0.20    0.00    0.03    0.00    0.00    0.00    2.52     1.9     1.5    1.21    1.21    0.96    0.97    0.62    0.62    0.45    0.34    0.28    0.18    0.19    0.14    0.14    0.09    0.09    2.97    2.20    1.78    1.39    1.40    1.10    1.11    0.71    0.72
   15 084     8     0     0    31.4    27.4     3.9     0.0    0.24    5.44    0.00    0.20    0.00    0.04    0.01    0.00    0.00    2.58     1.9     1.5    1.22    1.22    0.98    0.98    0.63    0.63    0.42    0.31    0.26    0.17    0.17    0.12    0.13    0.08    0.09    3.00    2.19    1.78    1.39    1.40    1.10    1.11    0.71    0.72
   15 085     9     0     0    31.4    27.8     3.6     0.0    0.25    5.79    0.00    0.21    0.00    0.05    0.01    0.00    0.00    2.63     1.9     1.5    1.24    1.24    0.99    0.99    0.64    0.64    0.39    0.29    0.24    0.15    0.16    0.11    0.12    0.08    0.08    3.02    2.18    1.77    1.39    1.40    1.10    1.11    0.71    0.72
   15 086    10     0     0    31.4    28.1     3.3     0.0    0.27    6.11    0.00    0.21    0.00    0.06    0.01    0.00    0.00    2.69     1.9     1.6    1.25    1.25    1.00    1.00    0.64    0.65    0.36    0.26    0.22    0.14    0.14    0.10    0.11    0.07    0.07    3.05    2.17    1.77    1.39    1.40    1.10    1.11    0.71    0.72
   15 087    11     0     0    31.4    28.4     3.0     0.0    0.29    6.42    0.00    0.22    0.00    0.07    0.02    0.00    0.00    2.74     1.9     1.6    1.26    1.27    1.01    1.01    0.65    0.65    0.33    0.24    0.20    0.13    0.13    0.09    0.10    0.06    0.07    3.07    2.15    1.77    1.39    1.40    1.10    1.11    0.71    0.72
   15 088    12     0     0    31.4    28.7     2.7     0.0    0.31    6.71    0.00    0.23    0.00    0.09    0.03    0.00    0.00    2.79     1.9     1.6    1.27    1.28    1.02    1.02    0.66    0.66    0.30    0.21    0.18    0.12    0.12    0.08    0.09    0.06    0.06    3.08    2.13    1.77    1.39    1.40    1.10    1.11    0.71    0.72
   15 089    13     0     0    31.4    28.9     2.4     0.0    0.35    6.99    0.00    0.24    0.00    0.10    0.04    0.00    0.00    2.26     2.2     1.6    1.28    1.29    1.03    1.03    0.66    0.67    0.27    0.18    0.16    0.10    0.11    0.08    0.08    0.05    0.06    2.52    2.34    1.80    1.39    1.40    1.10    1.11    0.71    0.72
   15 090    14     0     0    31.4    29.2     2.2     0.0    0.38    7.22    0.00    0.26    0.00    0.12    0.06    0.00    0.00    1.95     2.2     1.7    1.31    1.31    1.03    1.04    0.67    0.67    0.24    0.16    0.15    0.09    0.10    0.07    0.07    0.05    0.05    2.19    2.37    1.85    1.41    1.41    1.10    1.11    0.72    0.73
   15 091    15     0     0    31.4    29.3     2.0     0.0    0.41    7.44    0.00    0.27    0.00    0.14    0.10    0.00    0.00    1.97     2.1     1.7    1.34    1.32    1.04    1.04    0.67    0.68    0.22    0.14    0.14    0.09    0.09    0.06    0.07    0.04    0.05    2.19    2.29    1.87    1.43    1.41    1.11    1.10    0.72    0.73
   15 092    16     0     0    31.3    29.5     1.9     0.0    0.43    7.62    0.00    0.28    0.00    0.15    0.16    0.00    0.00    1.78     2.1     1.8    1.38    1.33    1.06    1.04    0.68    0.68    0.20    0.12    0.13    0.08    0.08    0.06    0.06    0.04    0.04    1.98    2.21    1.91    1.46    1.41    1.12    1.10    0.72    0.73
   15 093    17     0     0    31.2    29.5     1.7     0.0    0.45    7.78    0.00    0.29    0.00    0.17    0.22    0.09    0.00    1.75     1.9     1.8    1.40    1.33    1.08    1.05    0.69    0.69    0.19    0.11    0.12    0.07    0.08    0.05    0.06    0.04    0.04    1.94    2.05    1.87    1.47    1.41    1.13    1.11    0.73    0.73
   15 094    18     0     0    31.1    29.5     1.6     0.0    0.46    7.91    0.00    0.29    0.00    0.17    0.28    0.09    0.00    1.70     1.9     1.8    1.42    1.33    1.08    1.05    0.69    0.69    0.18    0.10    0.11    0.07    0.07    0.05    0.05    0.03    0.04    1.88    2.01    1.88    1.49    1.41    1.13    1.10    0.73    0.73
   15 095    19     0     0    31.0    29.5     1.5     0.0    0.46    8.03    0.00    0.29    0.00    0.17    0.35    0.16    0.00    1.65     1.8     1.7    1.43    1.34    1.09    1.06    0.70    0.70    0.17    0.10    0.10    0.06    0.07    0.05    0.05    0.03    0.03    1.82    1.89    1.85    1.49    1.41    1.14    1.10    0.73    0.73
   15 096    20     0     0    30.9    29.6     1.4     0.0    0.46    8.14    0.00    0.29    0.00    0.17    0.43    0.16    0.00    1.77     1.8     1.7    1.44    1.33    1.09    1.06    0.70    0.70    0.16    0.09    0.10    0.06    0.06    0.04    0.04    0.03    0.03    1.93    1.85    1.84    1.50    1.40    1.14    1.10    0.73    0.73
   15 097    21     0     0    30.9    29.6     1.3     0.0    0.46    8.24    0.00    0.29    0.00    0.17    0.48    0.16    0.00    1.96     1.7     1.7    1.43    1.33    1.09    1.05    0.71    0.70    0.15    0.08    0.09    0.06    0.06    0.04    0.04    0.03    0.03    2.11    1.81    1.82    1.49    1.39    1.13    1.09    0.73    0.73
   15 098    22    40     1    54.2    29.6    24.6    16.0    0.46    8.34    0.00    0.29    0.61    0.17    0.58    0.16    0.00    2.20     1.7     1.7    1.42    1.33    1.09    1.05    0.71    0.70   36.41    0.08    0.08    0.05    0.05    0.04    0.04    0.02    0.03   38.61    1.75    1.79    1.48    1.38    1.13    1.09    0.73    0.73
   15 099    23    40     1    60.2    31.1    29.0     9.1    0.46    9.90    0.00    0.29    1.08    0.17    0.96    0.16    0.00    4.51     1.6     1.7    1.43    1.33    1.09    1.05    0.71    0.70   43.50    0.07    0.08    0.05    0.05    0.03    0.03    0.02    0.02   48.01    1.72    1.79    1.48    1.38    1.13    1.09    0.73    0.73
   15 100    24    40     1    63.4    33.1    30.3     5.0    0.46   11.96    0.00    0.29    1.53    0.18    1.39    0.16    0.00    7.54     1.6     1.7    1.43    1.33    1.10    1.06    0.71    0.71   45.60    0.07    0.07    0.05    0.05    0.03    0.03    0.02    0.02   53.14    1.67    1.79    1.48    1.38    1.13    1.09    0.73    0.73
   15 101    25    40     1    65.3    35.5    29.8     2.5    0.49   14.47    0.00    0.29    1.76    0.19    1.78    0.16    0.00   11.20     1.6     1.7    1.43    1.34    1.10    1.06    0.71    0.71   44.93    0.06    0.07    0.04    0.04    0.03    0.03    0.02    0.02   56.12    1.63    1.79    1.48    1.38    1.13    1.09    0.73    0.73
   15 102    26    40     1    66.2    38.3    27.9     1.1    0.53   17.37    0.00    0.31    1.95    0.23    2.09    0.16    0.00   15.46     1.5     1.7    1.44    1.34    1.10    1.06    0.71    0.71   42.11    0.04    0.06    0.04    0.04    0.03    0.03    0.02    0.02   57.57    1.58    1.78    1.48    1.38    1.13    1.09    0.73    0.73
   15 103    27    40     1    66.6    41.3    25.3     0.4    0.61   20.48    0.00    0.32    2.09    0.28    2.29    0.16    0.00   20.09     1.5     1.7    1.44    1.35    1.11    1.07    0.72    0.71   38.05    0.03    0.05    0.03    0.04    0.02    0.03    0.02    0.02   58.14    1.53    1.78    1.48    1.38    1.13    1.09    0.73    0.74
   15 104    28    40     1    66.7    44.1    22.6     0.1    0.70   23.30    0.00    0.34    2.21    0.35    2.42    0.16    0.00   24.31     1.5     1.7    1.45    1.35    1.11    1.07    0.72    0.72   33.95    0.01    0.05    0.03    0.03    0.02    0.03    0.02    0.02   58.25    1.48    1.78    1.48    1.39    1.13    1.10    0.74    0.74
   15 105    29    40     1    66.6    46.4    20.2     0.1    0.80   25.70    0.00    0.35    2.33    0.44    2.50    0.16    0.00   27.92     1.4     1.7    1.45    1.35    1.11    1.07    0.72    0.72   30.25    0.00    0.04    0.03    0.03    0.02    0.03    0.02    0.02   58.16    1.43    1.77    1.48    1.39    1.14    1.10    0.74    0.74
   15 106    30    40     1    66.6    48.5    18.1     0.0    0.91   27.80    0.00    0.36    2.43    0.55    2.55    0.16    0.00   31.07     1.4     1.7    1.45    1.36    1.12    1.08    0.72    0.72   26.98    0.00    0.04    0.03    0.03    0.02    0.03    0.02    0.03   58.05    1.39    1.77    1.48    1.39    1.14    1.10    0.75    0.75
   15 107    31    40     1    66.6    50.4    16.3     0.0    1.04   29.71    0.00    0.37    2.51    0.67    2.59    0.16    0.00   11.17    11.2     2.4    1.59    1.39    1.13    1.08    0.73    0.73   24.05    0.00    0.04    0.03    0.03    0.02    0.03    0.02    0.03   35.22   11.19    2.48    1.61    1.42    1.15    1.11    0.75    0.75
   15 108    32    40     1    66.4    51.4    15.0     0.0    1.18   31.07    0.00    0.41    2.53    0.77    2.79    0.25    0.00   13.67     9.5     2.9    1.70    1.41    1.15    1.09    0.75    0.74   22.05    0.00    0.04    0.03    0.03    0.03    0.03    0.03    0.03   35.72    9.54    2.98    1.73    1.45    1.17    1.12    0.77    0.76
   15 109    33    40     1    66.3    53.0    13.3     0.0    1.30   32.81    0.00    0.44    2.55    0.86    2.99    0.27    0.00   16.86     8.8     3.1    1.74    1.42    1.16    1.10    0.75    0.74   19.32    0.00    0.04    0.03    0.03    0.03    0.03    0.03    0.03   36.18    8.82    3.11    1.77    1.46    1.18    1.13    0.78    0.77
   15 110    34    40     1    66.0    54.3    11.7     0.0    1.40   34.34    0.00    0.46    2.57    0.94    3.30    0.27    0.00   20.40     8.2     3.0    1.73    1.42    1.15    1.09    0.75    0.74   16.84    0.00    0.04    0.03    0.03    0.03    0.03    0.03    0.03   37.24    8.25    3.03    1.76    1.45    1.18    1.12    0.78    0.77
   15 111    35    40     1    65.6    55.3    10.3     0.0    1.49   35.55    0.00    0.47    2.59    1.02    3.71    0.27    0.00   23.61     7.6     2.9    1.71    1.41    1.15    1.09    0.75    0.74   14.81    0.00    0.04    0.03    0.03    0.03    0.03    0.03    0.03   38.42    7.60    2.94    1.73    1.44    1.18    1.12    0.78    0.77
   15 112    36    40     1    65.2    55.9     9.2     0.0    1.56   36.54    0.00    0.48    2.59    1.08    4.25    0.27    0.00   24.75     7.5     2.9    1.71    1.41    1.15    1.09    0.76    0.75   13.09    0.00    0.04    0.03    0.03    0.03    0.03    0.03    0.03   37.83    7.48    2.94    1.74    1.44    1.18    1.12    0.78    0.78
   15 113    37    40     1    64.6    56.4     8.2     0.0    1.63   37.43    0.00    0.48    2.60    1.14    4.83    0.27    0.00   25.75     7.3     2.9    1.71    1.41    1.16    1.10    0.76    0.75   11.56    0.00    0.04    0.03    0.03    0.02    0.03    0.03    0.03   37.31    7.31    2.92    1.74    1.45    1.18    1.12    0.78    0.78
   15 114    38    40     1    64.4    57.0     7.4     0.0    1.70   38.24    0.00    0.48    2.60    1.21    5.15    0.27    0.00   26.84     7.2     2.9    1.71    1.42    1.16    1.10    0.76    0.75   10.32    0.00    0.04    0.03    0.03    0.02    0.03    0.02    0.03   37.17    7.15    2.91    1.74    1.45    1.18    1.13    0.79    0.78
   15 115    39    40     1    64.0    57.3     6.7     0.0    1.78   38.94    0.00    0.49    2.61    1.30    5.61    0.27    0.00   27.77     6.9     2.9    1.71    1.42    1.16    1.10    0.77    0.76    9.28    0.00    0.04    0.03    0.03    0.02    0.03    0.02    0.03   37.05    6.89    2.89    1.74    1.45    1.18    1.13    0.79    0.78
   15 116    40    40     1    63.6    57.5     6.1     0.0    1.88   39.67    0.00    0.49    2.61    1.40    6.11    0.27    0.00   28.81     6.6     2.8    1.71    1.42    1.16    1.10    0.77    0.76    8.24    0.00    0.04    0.03    0.03    0.02    0.03    0.02    0.03   37.05    6.57    2.86    1.74    1.46    1.19    1.13    0.79    0.79
   15 117    41    40     1    62.9    57.6     5.4     0.0    2.00   40.37    0.00    0.49    2.62    1.52    6.86    0.27    0.00   26.56     7.7     2.8    1.71    1.43    1.17    1.11    0.77    0.76    7.11    0.00    0.04    0.03    0.03    0.03    0.03    0.03    0.03   33.67    7.74    2.82    1.74    1.46    1.19    1.14    0.80    0.79
   15 118    42    40     1    62.2    57.6     4.7     0.0    2.14   41.01    0.00    0.49    2.62    1.65    7.69    0.27    0.00   21.86    10.0     2.8    1.71    1.43    1.17    1.11    0.77    0.77    5.99    0.00    0.04    0.03    0.04    0.03    0.03    0.03    0.03   27.85   10.02    2.79    1.74    1.47    1.20    1.14    0.80    0.80
   15 119    43    40     1    61.9    57.7     4.2     0.0    2.29   41.46    0.00    0.49    2.63    1.80    8.17    0.27    0.00   21.60    10.1     2.8    1.70    1.43    1.17    1.11    0.78    0.77    5.25    0.01    0.04    0.03    0.04    0.03    0.03    0.03    0.03   26.85   10.08    2.89    1.73    1.46    1.20    1.14    0.80    0.80
   15 120    44    40     1    61.6    57.9     3.7     0.0    2.43   41.98    0.00    0.49    2.64    1.94    8.59    0.27    0.00   22.60     9.9     2.8    1.69    1.42    1.17    1.11    0.78    0.77    4.44    0.01    0.05    0.04    0.04    0.03    0.03    0.03    0.03   27.04    9.87    2.83    1.72    1.46    1.20    1.14    0.81    0.80
   15 121    45    40     1    61.1    57.8     3.3     0.0    2.58   42.43    0.00    0.49    2.66    2.09    9.24    0.27    0.00    9.40     9.9     6.0    2.51    1.54    1.18    1.11    0.78    0.77    3.69    0.01    0.05    0.04    0.04    0.03    0.03    0.03    0.03   13.09    9.90    6.00    2.54    1.58    1.22    1.14    0.81    0.80
   15 122    46    40     1    60.8    57.7     3.1     0.0    2.70   42.67    0.00    0.49    2.66    2.21    9.69    0.27    0.00    8.65     8.9     6.0    2.93    1.71    1.23    1.13    0.78    0.78    3.31    0.02    0.05    0.04    0.04    0.03    0.03    0.03    0.03   11.96    8.95    6.09    2.97    1.75    1.26    1.16    0.81    0.81
   15 123    47    40     1    60.2    57.5     2.8     0.0    2.81   42.93    0.00    0.49    2.67    2.32   10.32    0.27    0.00    6.13     8.3     6.3    3.36    1.91    1.29    1.15    0.79    0.78    2.82    0.02    0.05    0.04    0.04    0.03    0.03    0.03    0.03    8.95    8.29    6.39    3.40    1.95    1.32    1.19    0.82    0.81
   15 124    48    40     1    59.1    56.6     2.5     0.0    2.94   43.14    0.00    0.49    2.68    2.45   11.09    0.70    0.00    6.12     7.1     5.9    3.53    2.11    1.38    1.18    0.83    0.80    2.38    0.03    0.05    0.04    0.04    0.03    0.03    0.03    0.03    8.50    7.17    5.98    3.57    2.15    1.41    1.22    0.86    0.83
   15 125    49    40     1    58.4    56.2     2.2     0.0    3.13   43.43    0.00    0.49    2.69    2.64   12.06    0.70    0.00    5.96     6.6     5.8    3.60    2.18    1.41    1.20    0.84    0.80    1.81    0.03    0.06    0.05    0.05    0.04    0.04    0.03    0.03    7.77    6.68    5.87    3.64    2.23    1.44    1.23    0.87    0.83
   15 126    50    40     1    57.3    55.4     1.9     0.0    3.37   43.71    0.03    0.49    2.71    2.88   13.26    0.70    0.00    3.48     5.0     6.2    4.20    2.44    1.48    1.22    0.85    0.80    1.28    0.04    0.06    0.05    0.05    0.04    0.04    0.03    0.03    4.77    5.07    6.27    4.25    2.49    1.51    1.26    0.88    0.83
   15 127    51    40     1    56.1    54.2     1.9     0.0    3.64   43.92    0.14    0.49    2.71    3.15   14.03    1.32    0.00    3.29     4.3     5.5    4.14    2.67    1.63    1.28    0.88    0.82    1.00    0.05    0.07    0.06    0.06    0.04    0.04    0.03    0.03    4.30    4.37    5.54    4.20    2.72    1.67    1.33    0.92    0.85
   15 128    52    40     1    55.4    53.6     1.8     0.0    3.93   44.19    0.18    0.49    2.72    3.44   14.74    1.55    0.00    3.57     4.0     5.1    4.05    2.72    1.69    1.32    0.90    0.82    0.73    0.07    0.07    0.06    0.06    0.05    0.05    0.04    0.04    4.31    4.06    5.17    4.11    2.78    1.73    1.36    0.93    0.86
   15 129    53    40     1    54.8    53.1     1.7     0.0    4.24   44.45    0.19    0.49    2.74    3.75   15.59    1.55    0.00    3.49     3.9     4.9    4.00    2.72    1.70    1.32    0.90    0.83    0.51    0.08    0.08    0.06    0.07    0.05    0.05    0.04    0.04    4.01    3.99    5.00    4.07    2.79    1.75    1.37    0.94    0.87
   15 130    54    40     1    54.4    52.7     1.7     0.0    4.54   44.71    0.20    0.49    2.75    4.05   16.25    1.56    0.00    3.61     3.7     4.8    3.96    2.72    1.71    1.33    0.90    0.84    0.41    0.09    0.08    0.07    0.07    0.05    0.05    0.04    0.04    4.02    3.83    4.86    4.02    2.79    1.76    1.38    0.95    0.87
   15 131    55    40     1    54.0    52.2     1.7     0.0    4.81   44.96    0.20    0.49    2.76    4.32   16.94    1.56    0.00    3.85     3.6     4.6    3.88    2.69    1.70    1.33    0.91    0.84    0.36    0.10    0.08    0.07    0.07    0.05    0.05    0.04    0.04    4.20    3.73    4.72    3.95    2.76    1.75    1.38    0.95    0.88
   15 132    56    40     1    53.5    51.7     1.8     0.0    5.10   45.23    0.20    0.49    2.77    4.61   17.73    1.56    0.00    4.19     3.5     4.5    3.79    2.65    1.70    1.33    0.91    0.84    0.31    0.11    0.08    0.07    0.07    0.05    0.05    0.04    0.04    4.50    3.63    4.56    3.86    2.72    1.75    1.38    0.95    0.88
   15 133    57    40     1    52.8    51.0     1.8     0.0    5.43   45.53    0.20    0.49    2.78    4.94   18.76    1.56    0.00    3.35     3.6     4.3    3.74    2.65    1.70    1.34    0.92    0.85    0.28    0.13    0.09    0.07    0.07    0.05    0.06    0.04    0.04    3.63    3.68    4.42    3.81    2.72    1.76    1.39    0.96    0.89
   15 134    58    40     1    51.8    50.0     1.8     0.0    5.78   45.84    0.20    0.49    2.78    5.29   20.09    1.56    0.00    3.11     3.3     4.1    3.64    2.62    1.71    1.34    0.93    0.86    0.26    0.14    0.09    0.07    0.07    0.06    0.06    0.04    0.04    3.37    3.45    4.19    3.71    2.70    1.77    1.40    0.97    0.90
   15 135    59    40     1    50.6    48.7     1.9     0.0    6.15   46.15    0.20    0.49    2.79    5.66   21.66    1.56    0.00    2.63     3.1     3.9    3.53    2.58    1.71    1.35    0.93    0.86    0.25    0.15    0.09    0.08    0.08    0.06    0.06    0.05    0.04    2.87    3.24    3.98    3.60    2.66    1.77    1.41    0.98    0.91
   15 136    60    40     1    50.0    48.1     1.9     0.0    6.50   46.47    0.20    0.49    2.79    6.01   22.62    1.56    0.00    2.22     2.9     3.8    3.48    2.57    1.72    1.36    0.94    0.87    0.24    0.16    0.09    0.08    0.08    0.06    0.06    0.05    0.04    2.46    3.09    3.87    3.56    2.65    1.78    1.42    0.99    0.91
   15 137    61    40     1    49.0    47.1     1.9     0.0    6.85   46.79    0.20    0.49    2.80    6.36   23.94    1.56    0.00    1.81     2.7     3.6    3.39    2.54    1.73    1.37    0.95    0.88    0.23    0.17    0.10    0.08    0.08    0.06    0.06    0.05    0.04    2.03    2.87    3.70    3.47    2.62    1.79    1.43    0.99    0.92
   15 138    62    40     1    47.9    46.0     1.9     0.0    7.18   47.10    0.20    0.49    2.80    6.69   25.32    1.56    0.00    1.63     2.5     3.4    3.27    2.49    1.74    1.38    0.95    0.88    0.22    0.17    0.10    0.08    0.08    0.06    0.06    0.05    0.04    1.84    2.64    3.48    3.35    2.57    1.80    1.44    1.00    0.93
   15 139    63    40     1    46.6    44.7     1.9     0.0    7.48   47.40    0.20    0.49    2.81    6.99   26.97    1.56    0.00    0.73     2.3     3.2    3.11    2.42    1.74    1.39    0.96    0.89    0.21    0.18    0.10    0.08    0.08    0.06    0.06    0.05    0.04    0.94    2.52    3.35    3.19    2.50    1.80    1.45    1.01    0.93
   15 140    64    40     1    45.5    43.6     2.0     0.0    7.80   47.68    0.20    0.49    2.81    7.31   28.35    1.56    0.00    0.36     1.6     3.1    3.23    2.43    1.74    1.39    0.97    0.90    0.21    0.19    0.10    0.08    0.08    0.06    0.06    0.05    0.04    0.58    1.78    3.21    3.32    2.51    1.80    1.45    1.02    0.94
   15 141    65    40     1    45.3    43.3     2.0     0.0    8.09   47.94    0.20    0.49    2.82    7.60   28.81    1.56    0.00    0.41     1.4     2.9    3.26    2.53    1.79    1.40    0.98    0.90    0.22    0.20    0.10    0.08    0.08    0.06    0.06    0.05    0.04    0.63    1.57    2.98    3.35    2.61    1.85    1.46    1.02    0.95
   15 142    66    40     1    44.3    42.3     2.0     0.0    8.37   48.18    0.20    0.49    2.82    7.88   29.94    1.75    0.00    0.48     1.1     2.5    2.98    2.50    1.84    1.46    1.01    0.92    0.23    0.21    0.11    0.09    0.08    0.06    0.06    0.05    0.04    0.71    1.36    2.56    3.07    2.58    1.91    1.52    1.05    0.96
   15 143    67    40     1    43.2    41.2     2.0     0.0    8.62   48.43    0.20    0.49    2.83    8.13   31.23    1.75    0.00    0.56     1.0     2.2    2.82    2.44    1.85    1.46    1.01    0.92    0.22    0.21    0.11    0.09    0.08    0.06    0.06    0.05    0.04    0.78    1.22    2.29    2.90    2.52    1.92    1.52    1.06    0.97
   15 144    68    40     1    41.3    39.3     2.0     0.0    8.84   48.67    0.20    0.49    2.84    8.35   33.42    1.75    0.00    0.27     0.8     1.8    2.56    2.31    1.83    1.48    1.02    0.93    0.21    0.22    0.11    0.09    0.08    0.06    0.06    0.04    0.04    0.48    1.00    1.93    2.65    2.39    1.90    1.53    1.06    0.97
   15 145    69    40     1    39.4    37.5     2.0     0.0    9.05   48.90    0.20    0.49    2.84    8.56   35.45    1.75    0.00    0.33     0.6     1.5    2.29    2.15    1.80    1.48    1.02    0.93    0.20    0.21    0.11    0.09    0.08    0.06    0.06    0.04    0.04    0.53    0.80    1.60    2.38    2.23    1.87    1.53    1.06    0.97
   15 146    70    40     1    37.9    35.9     2.0     0.0    9.31   49.17    0.20    0.49    2.85    8.82   37.29    1.75    0.00    0.39     0.5     1.2    2.04    1.99    1.77    1.48    1.02    0.94    0.20    0.22    0.10    0.09    0.08    0.06    0.06    0.04    0.04    0.59    0.67    1.31    2.13    2.07    1.83    1.54    1.07    0.98
   15 147    71    40     1    36.7    34.7     1.9     0.0    9.59   49.44    0.20    0.49    2.85    9.10   38.74    1.75    0.00    0.45     0.5     1.0    1.82    1.83    1.74    1.48    1.03    0.94    0.20    0.22    0.10    0.08    0.08    0.06    0.06    0.04    0.04    0.65    0.71    1.08    1.90    1.91    1.80    1.54    1.07    0.98
   15 148    72    40     1    35.6    33.7     1.9     0.0    9.86   49.71    0.20    0.49    2.86    9.37   40.03    1.75    0.00    0.49     0.5     0.8    1.62    1.69    1.70    1.49    1.04    0.95    0.20    0.22    0.10    0.08    0.08    0.06    0.06    0.04    0.04    0.68    0.74    0.89    1.70    1.77    1.76    1.55    1.08    0.99
   15 149    73    40     1    34.5    32.6     1.9     0.0   10.12   49.98    0.20    0.49    2.86    9.63   41.39    1.75    0.00    0.52     0.4     0.6    1.44    1.55    1.66    1.50    1.04    0.95    0.19    0.22    0.10    0.08    0.08    0.06    0.06    0.04    0.04    0.71    0.62    0.75    1.52    1.63    1.72    1.56    1.09    0.99
   15 150    74    40     1    33.7    31.8     1.9     0.0   10.41   50.26    0.20    0.49    2.87    9.92   42.51    1.75    0.00    0.49     0.4     0.5    1.28    1.42    1.61    1.51    1.05    0.96    0.18    0.22    0.10    0.08    0.08    0.06    0.06    0.04    0.04    0.67    0.65    0.64    1.37    1.50    1.67    1.57    1.09    1.00
   15 151    75    40     1    33.0    31.1     1.9     0.0   10.70   50.55    0.20    0.49    2.87   10.21   43.49    1.75    0.00    0.52     0.5     0.5    1.14    1.30    1.55    1.52    1.05    0.96    0.17    0.21    0.10    0.08    0.08    0.06    0.06    0.04    0.04    0.69    0.68    0.56    1.23    1.38    1.62    1.57    1.10    1.00
   15 152    76    80     2    68.4    30.8    37.6     3.8   11.01   50.84    0.20    0.49    3.28   10.52   44.23    1.75    0.00    0.73     0.5     0.5    1.02    1.18    1.50    1.52    1.06    0.97   55.48    0.21    0.10    0.08    0.08    0.06    0.06    0.04    0.04   56.21    0.70    0.57    1.11    1.27    1.56    1.58    1.11    1.01
   15 153    77    80     2    70.0    35.5    34.6     1.5   11.37   56.17    0.20    0.49    3.57   10.88   44.94    1.75    0.00    8.63     0.5     0.5    0.92    1.08    1.44    1.53    1.07    0.98   50.70    0.20    0.11    0.09    0.08    0.06    0.06    0.05    0.04   59.33    0.73    0.59    1.01    1.17    1.50    1.59    1.12    1.02
   15 154    78    80     2    70.2    40.0    30.2     0.6   11.78   61.33    0.20    0.49    3.86   11.29   45.64    1.75    0.00   16.20     0.5     0.5    0.84    1.00    1.38    1.54    1.08    0.98   43.90    0.19    0.10    0.09    0.09    0.07    0.06    0.05    0.04   60.10    0.71    0.61    0.93    1.08    1.45    1.60    1.13    1.03
   15 155    79    80     2    70.1    44.0    26.1     0.3   12.21   65.88    0.20    0.49    4.09   11.72   46.25    1.75    0.00   22.76     0.5     0.5    0.78    0.93    1.33    1.55    1.09    0.99   37.47    0.18    0.10    0.09    0.09    0.07    0.06    0.05    0.05   60.24    0.70    0.63    0.87    1.01    1.40    1.61    1.14    1.04
   15 156    80    80     2    69.8    47.5    22.4     0.2   12.65   69.87    0.20    0.49    4.33   12.16   46.87    1.75    0.00   28.42     0.5     0.5    0.73    0.87    1.28    1.56    1.10    1.00   31.66    0.16    0.10    0.09    0.09    0.07    0.07    0.05    0.05   60.08    0.70    0.61    0.82    0.96    1.35    1.62    1.15    1.05
   15 157    81    80     2    69.4    50.6    18.8     0.1   13.12   73.43    0.20    0.49    4.76   12.63   47.41    1.75    0.00   33.35     0.6     0.5    0.70    0.82    1.23    1.56    1.11    1.01   26.17    0.15    0.09    0.09    0.09    0.07    0.07    0.05    0.05   59.52    0.71    0.60    0.78    0.91    1.30    1.63    1.16    1.06
   15 158    82    80     2    68.5    55.2    13.3     0.0   13.61   78.37    0.20    0.49    5.80   13.12   47.85    1.75    0.00   40.47     0.6     0.5    0.67    0.79    1.19    1.57    1.12    1.02   17.61    0.14    0.08    0.08    0.09    0.07    0.07    0.05    0.05   58.07    0.72    0.62    0.76    0.88    1.26    1.64    1.18    1.07
   15 159    83    80     2    66.0    56.6     9.4     0.0   14.10   81.32    0.20    0.49    6.23   13.61   50.31    1.75    0.00   22.42    10.5     0.5    0.67    0.77    1.16    1.57    1.14    1.03   11.67    0.12    0.08    0.08    0.09    0.07    0.07    0.06    0.05   34.09   10.65    0.62    0.74    0.86    1.23    1.64    1.19    1.08
   15 160    84    80     2    65.7    57.5     8.3     0.0   14.62   82.80    0.20    0.49    6.37   14.13   50.99    1.75    0.00   21.32    11.7     0.5    0.66    0.75    1.12    1.57    1.15    1.04    9.80    0.16    0.07    0.07    0.08    0.07    0.07    0.06    0.05   31.12   11.85    0.62    0.74    0.84    1.19    1.65    1.21    1.10
   15 161    85    80     2    65.1    58.3     6.8     0.0   15.11   84.30    0.20    0.49    6.47   14.62   52.02    1.75    0.00   21.02    12.2     0.6    0.68    0.77    1.13    1.59    1.16    1.05    7.47    0.18    0.07    0.07    0.08    0.07    0.07    0.06    0.05   28.49   12.41    0.63    0.75    0.85    1.21    1.66    1.22    1.11
   15 162    86    80     2    64.2    58.7     5.5     0.0   15.55   85.58    0.20    0.49    6.56   15.06   53.26    1.75    0.00   21.74    12.0     0.6    0.69    0.79    1.15    1.60    1.17    1.06    5.40    0.20    0.07    0.07    0.08    0.07    0.07    0.06    0.05   27.14   12.16    0.64    0.76    0.86    1.22    1.67    1.23    1.12
   15 163    87    80     2    63.3    58.9     4.5     0.0   15.96   86.56    0.20    0.49    6.65   15.47   54.43    1.75    0.00   21.82    11.8     0.6    0.70    0.80    1.16    1.61    1.18    1.07    3.91    0.21    0.07    0.07    0.08    0.07    0.07    0.06    0.05   25.72   11.99    0.65    0.77    0.87    1.23    1.68    1.24    1.13
   15 164    88    80     2    62.4    58.6     3.8     0.0   16.34   87.37    0.20    0.49    6.72   15.85   55.71    1.75    0.00   17.46    13.5     0.6    0.71    0.81    1.17    1.62    1.19    1.08    2.81    0.21    0.06    0.07    0.07    0.07    0.07    0.06    0.05   20.27   13.74    0.66    0.78    0.88    1.24    1.69    1.25    1.13
   15 165    89    80     2    61.7    58.4     3.4     0.0   16.76   88.07    0.20    0.49    6.77   16.26   56.71    1.75    0.00    8.04    13.6     3.4    0.72    0.82    1.17    1.63    1.20    1.09    2.24    0.22    0.06    0.06    0.07    0.07    0.07    0.06    0.05   10.28   13.79    3.42    0.79    0.89    1.24    1.70    1.26    1.14
   15 166    90    80     2    61.3    58.3     3.1     0.0   17.26   88.69    0.20    0.49    6.80   16.77   57.59    1.75    0.00    3.86    10.0     6.1    1.39    0.83    1.18    1.64    1.22    1.10    1.65    0.25    0.07    0.06    0.07    0.07    0.07    0.06    0.05    5.51   10.28    6.22    1.45    0.90    1.25    1.71    1.27    1.15
   15 167    91    80     2    61.3    58.4     3.0     0.0   17.79   89.22    0.20    0.49    6.83   17.30   58.08    1.75    0.00    3.59     8.6     6.1    2.32    0.85    1.19    1.65    1.23    1.11    1.37    0.28    0.09    0.06    0.07    0.07    0.07    0.06    0.05    4.96    8.92    6.18    2.38    0.91    1.27    1.73    1.29    1.17
   15 168    92    80     2    61.1    58.3     2.8     0.0   18.32   89.81    0.20    0.49    6.86   17.83   58.81    1.75    0.00    3.69     8.0     6.0    2.61    0.86    1.21    1.67    1.24    1.12    1.01    0.29    0.10    0.07    0.07    0.07    0.07    0.06    0.05    4.70    8.30    6.10    2.68    0.93    1.28    1.74    1.30    1.18
   15 169    93    80     2    60.8    58.2     2.7     0.0   18.80   90.35    0.20    0.49    6.88   18.31   59.54    1.75    0.00    2.51     7.4     6.3    2.84    0.87    1.22    1.68    1.25    1.13    0.76    0.29    0.10    0.08    0.06    0.07    0.07    0.06    0.05    3.28    7.71    6.44    2.92    0.94    1.29    1.75    1.31    1.18
   15 170    94    80     2    60.6    58.0     2.6     0.0   19.23   90.77    0.23    0.49    6.89   18.74   60.16    1.75    0.00    2.38     6.6     6.2    3.15    1.08    1.23    1.69    1.26    1.14    0.69    0.30    0.11    0.08    0.06    0.07    0.07    0.06    0.05    3.07    6.92    6.29    3.23    1.14    1.30    1.76    1.32    1.19
   15 171    95    80     2    60.5    58.0     2.6     0.0   19.62   91.19    0.23    0.49    6.89   19.13   60.61    1.75    0.00    2.35     6.4     6.2    3.18    1.08    1.24    1.70    1.27    1.15    0.60    0.30    0.11    0.08    0.06    0.07    0.07    0.06    0.05    2.96    6.69    6.29    3.27    1.15    1.31    1.77    1.33    1.20
   15 172    96    80     2    60.5    58.0     2.5     0.0   19.98   91.59    0.23    0.49    6.89   19.49   61.06    1.75    0.00    2.40     6.3     6.1    3.17    1.09    1.25    1.70    1.28    1.16    0.53    0.30    0.11    0.09    0.06    0.07    0.07    0.06    0.05    2.93    6.58    6.26    3.25    1.16    1.32    1.78    1.33    1.21
   15 173    97    80     2    60.4    57.9     2.4     0.0   20.33   91.97    0.23    0.49    6.89   19.84   61.49    1.75    0.00    1.81     6.0     6.3    3.28    1.10    1.26    1.71    1.29    1.16    0.47    0.29    0.11    0.09    0.06    0.07    0.07    0.06    0.05    2.28    6.28    6.43    3.36    1.16    1.33    1.78    1.34    1.21
   15 174    98    80     2    60.4    57.9     2.4     0.0   20.69   92.34    0.23    0.49    6.90   20.20   61.86    1.75    0.00    1.68     5.6     6.4    3.40    1.14    1.27    1.72    1.29    1.17    0.47    0.30    0.12    0.09    0.06    0.07    0.07    0.05    0.05    2.14    5.90    6.47    3.49    1.20    1.33    1.79    1.35    1.22
   15 175    99    80     2    60.7    58.3     2.4     0.0   21.06   92.70    0.23    0.49    6.90   20.57   61.86    1.75    0.00    1.73     5.3     6.3    3.53    1.30    1.28    1.73    1.30    1.18    0.46    0.30    0.12    0.09    0.06    0.06    0.07    0.05    0.05    2.19    5.62    6.42    3.62    1.36    1.34    1.80    1.36    1.23
   15 176   100    80     2    61.1    58.7     2.4     0.0   21.43   93.09    0.23    0.49    6.90   20.94   61.86    1.75    0.00    2.00     5.4     6.3    3.53    1.31    1.29    1.74    1.31    1.19    0.44    0.30    0.12    0.09    0.06    0.06    0.07    0.05    0.05    2.43    5.66    6.40    3.62    1.37    1.35    1.81    1.37    1.24
   15 177   101    80     2    61.3    58.9     2.4     0.0   21.81   93.49    0.23    0.49    6.90   21.32   62.07    1.75    0.00    2.06     5.3     6.3    3.53    1.32    1.30    1.75    1.32    1.19    0.41    0.29    0.12    0.09    0.06    0.06    0.07    0.05    0.05    2.47    5.64    6.38    3.63    1.38    1.36    1.82    1.37    1.24
   15 178   102    80     2    61.4    59.0     2.4     0.0   22.21   93.90    0.23    0.49    6.91   21.72   62.32    1.75    0.00    2.15     5.3     6.2    3.53    1.33    1.31    1.76    1.33    1.20    0.38    0.29    0.12    0.09    0.06    0.06    0.07    0.05    0.05    2.53    5.60    6.35    3.63    1.39    1.37    1.83    1.38    1.25
   15 179   103    80     2    61.8    59.4     2.3     0.0   22.61   94.32    0.23    0.49    6.91   22.12   62.32    1.75    0.00    2.27     5.3     6.2    3.55    1.34    1.32    1.77    1.34    1.21    0.35    0.28    0.12    0.09    0.06    0.06    0.07    0.05    0.05    2.62    5.63    6.37    3.64    1.40    1.38    1.84    1.39    1.26
   15 180   104    80     2    62.2    59.9     2.3     0.0   23.04   94.76    0.23    0.49    6.91   22.55   62.32    1.75    0.00    2.41     5.4     6.3    3.57    1.35    1.33    1.79    1.35    1.22    0.32    0.28    0.12    0.10    0.07    0.06    0.07    0.06    0.05    2.72    5.65    6.39    3.66    1.42    1.39    1.86    1.41    1.27
   15 181   105    80     2    62.7    60.3     2.3     0.0   23.48   95.23    0.23    0.49    6.92   22.99   62.32    1.75    0.00    2.56     5.4     6.3    3.58    1.36    1.35    1.80    1.36    1.23    0.29    0.26    0.12    0.10    0.06    0.06    0.07    0.06    0.05    2.84    5.67    6.40    3.68    1.43    1.41    1.87    1.42    1.28
   15 182   106    80     2    63.1    60.8     2.3     0.0   23.95   95.72    0.23    0.49    6.92   23.46   62.32    1.75    0.00    2.70     5.4     6.3    3.60    1.38    1.36    1.82    1.37    1.24    0.26    0.24    0.12    0.10    0.06    0.06    0.07    0.06    0.05    2.97    5.68    6.42    3.70    1.44    1.42    1.89    1.43    1.29
   15 183   107   120     3    98.4    61.5    36.9     4.6   24.42   96.24    0.23    0.49    7.50   23.93   62.32    1.75    0.00    3.07     5.5     6.3    3.63    1.39    1.37    1.83    1.39    1.25   53.95    0.21    0.11    0.10    0.06    0.06    0.07    0.06    0.05   57.02    5.68    6.43    3.72    1.46    1.43    1.90    1.44    1.30
   15 184   108   120     3    98.7    67.7    31.0     2.2   24.90  102.88    0.23    0.49    9.43   24.41   62.93    1.75    0.00   12.92     5.4     6.2    3.56    1.40    1.38    1.84    1.40    1.26   44.96    0.19    0.11    0.10    0.06    0.06    0.07    0.06    0.05   57.88    5.62    6.30    3.66    1.46    1.44    1.91    1.46    1.32
   15 185   109   120     3    89.4    72.2    17.2     1.2   25.39  108.58    0.23    0.49   18.83   24.90   64.26    1.75    0.00   21.28     5.3     6.0    3.39    1.40    1.38    1.82    1.41    1.27   23.65    0.16    0.10    0.09    0.06    0.06    0.07    0.06    0.06   44.94    5.50    6.05    3.48    1.46    1.44    1.90    1.47    1.33
   15 186   110   120     3    76.4    74.0     2.4     0.7   25.88  111.89    0.23    0.49   31.31   25.39   65.82    1.75    0.00   25.77     5.2     5.7    3.14    1.38    1.37    1.78    1.43    1.29    0.67    0.14    0.09    0.09    0.06    0.05    0.07    0.06    0.06   26.44    5.34    5.82    3.23    1.44    1.42    1.86    1.49    1.34
   15 187   111   120     3    75.9    73.5     2.4     0.4   26.38  112.52    0.23    0.49   31.41   25.89   66.93    1.75    0.00   25.98     5.1     5.6    3.00    1.37    1.36    1.75    1.44    1.30    0.82    0.12    0.08    0.08    0.06    0.05    0.07    0.06    0.06   26.80    5.23    5.68    3.08    1.43    1.41    1.83    1.50    1.36
   15 188   112   120     3    75.7    73.4     2.3     0.2   26.88  113.18    0.23    0.49   31.49   26.39   67.72    1.75    0.00   26.24     5.0     5.5    2.94    1.36    1.36    1.72    1.46    1.31    0.83    0.11    0.07    0.07    0.05    0.05    0.07    0.06    0.06   27.08    5.15    5.57    3.01    1.42    1.41    1.80    1.52    1.37
   15 189   113   120     3    75.8    73.5     2.3     0.0   27.42  113.90    0.23    0.49   31.58   26.93   68.35    1.75    0.00   22.42     7.1     5.4    2.90    1.36    1.36    1.70    1.47    1.33    0.85    0.09    0.06    0.06    0.05    0.05    0.07    0.06    0.06   23.27    7.17    5.48    2.96    1.41    1.40    1.77    1.53    1.39
   15 190   114   120     3    73.5    71.5     2.0     0.0   27.96  114.50    0.23    0.49   31.65   27.47   71.11    1.75    0.00   19.25     7.0     5.4    2.88    1.36    1.36    1.69    1.49    1.34    0.38    0.10    0.06    0.06    0.05    0.05    0.07    0.06    0.06   19.63    7.14    5.44    2.94    1.42    1.41    1.77    1.55    1.40
   15 191   115   120     3    71.6    69.7     1.9     0.0   28.42  115.00    0.23    0.49   31.71   27.93   73.41    1.75    0.00   16.14     7.0     5.4    2.89    1.37    1.37    1.70    1.50    1.35    0.25    0.10    0.06    0.06    0.05    0.05    0.07    0.06    0.06   16.39    7.09    5.44    2.94    1.42    1.41    1.77    1.56    1.41
   15 192   116   120     3    69.4    67.6     1.8     0.0   28.81  115.40    0.23    0.49   31.76   28.32   75.99    1.75    0.00   13.22     6.8     5.3    2.86    1.37    1.36    1.68    1.51    1.37    0.16    0.10    0.05    0.06    0.05    0.05    0.07    0.06    0.06   13.38    6.91    5.38    2.91    1.42    1.41    1.75    1.57    1.42
   15 193   117   120     3    69.1    67.3     1.7     0.0   29.15  115.77    0.23    0.49   31.79   28.66   76.58    1.75    0.00   13.35     6.7     5.3    2.82    1.36    1.36    1.66    1.52    1.38    0.11    0.09    0.05    0.05    0.05    0.04    0.07    0.06    0.06   13.46    6.75    5.33    2.88    1.41    1.40    1.73    1.59    1.44
   15 194   118   120     3    68.9    67.2     1.7     0.0   29.47  116.12    0.23    0.49   31.82   28.98   77.06    1.75    0.00   13.47     6.5     5.2    2.80    1.36    1.36    1.64    1.53    1.39    0.08    0.09    0.05    0.05    0.05    0.04    0.07    0.06    0.06   13.54    6.64    5.28    2.85    1.41    1.40    1.71    1.59    1.45
   15 195   119   120     3    68.8    67.1     1.7     0.0   29.80  116.45    0.23    0.49   31.84   29.31   77.46    1.75    0.00   13.58     6.5     5.2    2.77    1.35    1.35    1.63    1.54    1.40    0.06    0.09    0.05    0.05    0.05    0.04    0.07    0.06    0.06   13.64    6.55    5.24    2.82    1.40    1.40    1.69    1.60    1.46
   15 196   120   120     3    68.8    67.1     1.6     0.0   30.14  116.81    0.23    0.49   31.85   29.65   77.81    1.75    0.00   13.68     6.4     5.2    2.75    1.35    1.35    1.61    1.56    1.41    0.05    0.08    0.05    0.05    0.05    0.04    0.07    0.06    0.06   13.74    6.49    5.21    2.80    1.40    1.39    1.68    1.62    1.47
   15 197   121   120     3    68.8    67.2     1.6     0.0   30.51  117.18    0.23    0.49   31.87   30.02   78.10    1.75    0.00   13.79     6.4     5.1    2.74    1.35    1.35    1.61    1.57    1.42    0.05    0.08    0.05    0.05    0.05    0.04    0.06    0.06    0.06   13.84    6.43    5.18    2.79    1.40    1.39    1.67    1.63    1.48
   15 198   122   120     3    68.9    67.3     1.6     0.0   30.89  117.57    0.23    0.49   31.88   30.40   78.36    1.75    0.00   13.90     6.3     5.1    2.73    1.35    1.35    1.60    1.58    1.43    0.05    0.08    0.05    0.05    0.05    0.04    0.06    0.06    0.06   13.95    6.39    5.16    2.77    1.40    1.39    1.67    1.64    1.49
   15 199   123   120     3    69.1    67.5     1.6     0.0   31.27  117.97    0.23    0.49   31.89   30.78   78.59    1.75    0.00   14.00     6.3     5.1    2.71    1.35    1.35    1.60    1.59    1.45    0.05    0.07    0.04    0.04    0.04    0.04    0.06    0.06    0.06   14.05    6.35    5.14    2.76    1.40    1.39    1.66    1.65    1.50
   15 200   124   120     3    69.3    67.7     1.6     0.0   31.68  118.38    0.23    0.49   31.90   31.19   78.79    1.75    0.00   14.11     6.3     5.1    2.71    1.36    1.35    1.60    1.61    1.46    0.05    0.07    0.04    0.04    0.04    0.04    0.06    0.06    0.06   14.15    6.32    5.13    2.75    1.40    1.39    1.66    1.67    1.52
   15 201   125   120     3    69.5    67.9     1.5     0.0   32.08  118.79    0.23    0.49   31.91   31.59   78.98    1.75    0.00   14.21     6.2     5.1    2.70    1.36    1.36    1.60    1.62    1.47    0.05    0.06    0.04    0.04    0.04    0.04    0.06    0.06    0.06   14.26    6.30    5.12    2.74    1.40    1.40    1.66    1.68    1.53
   15 202   126   120     3    69.7    68.2     1.5     0.0   32.49  119.20    0.23    0.49   31.92   32.00   79.14    1.75    0.00   14.31     6.2     5.1    2.69    1.36    1.36    1.61    1.63    1.49    0.05    0.06    0.04    0.04    0.04    0.04    0.05    0.06    0.06   14.36    6.27    5.11    2.74    1.41    1.40    1.66    1.70    1.54
   15 203   127   120     3    70.0    68.4     1.5     0.0   32.90  119.61    0.23    0.49   31.93   32.41   79.29    1.75    0.00   14.42     6.2     5.1    2.69    1.37    1.36    1.61    1.65    1.50    0.04    0.06    0.04    0.04    0.04    0.04    0.05    0.06    0.06   14.46    6.25    5.10    2.73    1.41    1.40    1.66    1.71    1.56
   15 204   128   120     3    70.2    68.7     1.5     0.0   33.30  120.03    0.23    0.49   31.94   32.81   79.43    1.75    0.00   14.52     6.2     5.1    2.69    1.37    1.37    1.61    1.66    1.51    0.04    0.05    0.04    0.04    0.04    0.04    0.05    0.06    0.06   14.56    6.23    5.09    2.73    1.41    1.40    1.66    1.72    1.57
   15 205   129   120     3    70.5    69.0     1.5     0.0   33.71  120.43    0.23    0.49   31.95   33.22   79.56    1.75    0.00   14.62     6.2     5.0    2.69    1.38    1.37    1.62    1.68    1.53    0.05    0.05    0.04    0.04    0.04    0.04    0.05    0.06    0.06   14.67    6.21    5.08    2.72    1.42    1.41    1.67    1.74    1.59
   15 206   130   120     3    70.8    69.3     1.5     0.0   34.11  120.83    0.23    0.49   31.96   33.62   79.68    1.75    0.00   14.73     6.1     5.0    2.68    1.38    1.37    1.62    1.69    1.54    0.05    0.05    0.04    0.04    0.04    0.04    0.05    0.06    0.06   14.78    6.19    5.08    2.72    1.42    1.41    1.67    1.75    1.60
   15 207   131   120     3    71.0    69.5     1.5     0.0   34.49  121.21    0.23    0.49   31.97   34.00   79.79    1.75    0.00   14.83     6.1     5.0    2.68    1.39    1.38    1.62    1.71    1.56    0.05    0.05    0.04    0.04    0.04    0.04    0.05    0.06    0.06   14.88    6.17    5.08    2.72    1.43    1.41    1.67    1.77    1.61
   15 208   132   120     3    71.2    69.8     1.5     0.0   34.85  121.56    0.23    0.49   31.99   34.36   79.90    1.75    0.00   14.93     6.1     5.0    2.68    1.39    1.38    1.63    1.72    1.57    0.06    0.05    0.03    0.04    0.04    0.04    0.05    0.06    0.06   14.99    6.15    5.07    2.72    1.43    1.42    1.67    1.78    1.63
   15 209   133   120     3    71.5    70.0     1.5     0.0   35.19  121.88    0.23    0.49   32.00   34.70   80.00    1.75    0.00   15.04     6.1     5.0    2.68    1.40    1.38    1.63    1.73    1.58    0.08    0.05    0.03    0.04    0.04    0.03    0.05    0.06    0.06   15.12    6.13    5.07    2.71    1.43    1.42    1.67    1.79    1.64
   15 210   134   120     3    69.7    68.3     1.5     0.0   35.51  122.19    0.23    0.49   32.02   35.02   82.04    1.75    0.00   12.13     6.1     5.0    2.67    1.40    1.38    1.63    1.74    1.59    0.08    0.05    0.03    0.04    0.04    0.03    0.04    0.06    0.06   12.21    6.11    5.06    2.71    1.44    1.42    1.67    1.80    1.65
   15 211   135   120     3    69.7    68.2     1.4     0.0   35.80  122.48    0.23    0.49   32.03   35.31   82.35    1.75    0.00   11.90     6.0     5.0    2.67    1.40    1.39    1.63    1.75    1.60    0.07    0.05    0.03    0.04    0.04    0.03    0.04    0.06    0.06   11.97    6.08    5.06    2.71    1.44    1.42    1.67    1.81    1.66
   15 212   136   120     3    69.6    68.1     1.4     0.0   36.07  122.75    0.23    0.49   32.05   35.58   82.73    1.75    0.00   11.56     6.0     5.0    2.67    1.40    1.39    1.63    1.76    1.61    0.06    0.04    0.03    0.04    0.04    0.03    0.04    0.06    0.06   11.62    6.06    5.06    2.70    1.44    1.42    1.67    1.82    1.67
   15 213   137   120     3    69.7    68.3     1.4     0.0   36.34  123.02    0.23    0.49   32.05   35.85   82.83    1.75    0.00   11.64     6.0     5.0    2.67    1.41    1.39    1.63    1.77    1.62    0.08    0.04    0.03    0.04    0.04    0.03    0.04    0.06    0.06   11.72    6.04    5.05    2.70    1.44    1.42    1.67    1.83    1.68
   15 214   138   120     3    69.9    68.5     1.4     0.0   36.60  123.29    0.23    0.49   32.05   36.11   82.91    1.75    0.00   11.74     6.0     5.0    2.66    1.41    1.39    1.63    1.78    1.63    0.08    0.04    0.03    0.04    0.04    0.03    0.04    0.06    0.06   11.82    6.02    5.05    2.70    1.44    1.42    1.67    1.84    1.69
   15 215   139   120     3    70.1    68.7     1.4     0.0   36.87  123.56    0.23    0.49   32.05   36.37   82.99    1.75    0.00   11.84     5.9     5.0    2.66    1.41    1.39    1.63    1.79    1.64    0.09    0.04    0.03    0.03    0.04    0.03    0.04    0.06    0.06   11.93    5.99    5.05    2.70    1.45    1.42    1.67    1.85    1.70
   15 216   140   120     3    70.3    68.9     1.4     0.0   37.15  123.84    0.23    0.49   32.06   36.66   83.06    1.75    0.00   11.94     5.9     5.0    2.66    1.41    1.39    1.63    1.80    1.65    0.09    0.04    0.03    0.03    0.04    0.03    0.04    0.06    0.06   12.03    5.97    5.05    2.70    1.45    1.43    1.67    1.86    1.71
   15 217   141   120     3    70.5    69.1     1.4     0.0   37.45  124.14    0.23    0.49   32.06   36.96   83.13    1.75    0.00   12.04     5.9     5.0    2.66    1.42    1.40    1.64    1.81    1.67    0.10    0.05    0.03    0.03    0.04    0.03    0.04    0.06    0.06   12.14    5.95    5.04    2.70    1.45    1.43    1.68    1.87    1.72
   15 218   142   120     3    70.8    69.4     1.4     0.0   37.78  124.46    0.23    0.49   32.06   37.28   83.20    1.75    0.00   12.14     5.9     5.0    2.66    1.42    1.40    1.64    1.82    1.68    0.10    0.05    0.03    0.03    0.03    0.03    0.04    0.06    0.06   12.24    5.93    5.04    2.70    1.46    1.43    1.68    1.88    1.73
   15 219   143   120     3    71.0    69.6     1.4     0.0   38.12  124.80    0.23    0.49   32.08   37.63   83.27    1.75    0.00   12.24     5.9     5.0    2.67    1.43    1.40    1.64    1.83    1.69    0.07    0.05    0.03    0.03    0.03    0.03    0.04    0.06    0.06   12.31    5.91    5.04    2.70    1.46    1.44    1.68    1.89    1.75
   15 220   144   120     3    71.3    69.9     1.4     0.0   38.48  125.16    0.23    0.49   32.09   37.99   83.33    1.75    0.00   12.34     5.9     5.0    2.67    1.44    1.41    1.65    1.85    1.70    0.05    0.04    0.03    0.03    0.03    0.03    0.04    0.06    0.06   12.39    5.90    5.05    2.70    1.47    1.44    1.69    1.91    1.76
   15 221   145   120     3    71.6    70.3     1.4     0.0   38.88  125.54    0.23    0.49   32.11   38.39   83.40    1.75    0.00   12.44     5.8     5.0    2.67    1.44    1.41    1.65    1.86    1.72    0.06    0.04    0.03    0.03    0.03    0.03    0.04    0.06    0.06   12.50    5.88    5.05    2.71    1.48    1.45    1.69    1.92    1.78

*DSSAT Cropping System Model Ver. 4.8.5.000 -release  OCT 24, 2025 14:14:59

*RUN   2        : 2                         CSCER048 TUDU1501    2
 MODEL          : CSCER048 - Wheat
 EXPERIMENT     : TUDU1501 WH
 DATA PATH      :
 TREATMENT  2   : 2                         CSCER048
  
!                                                                                                                                      NO3 (ppm) at soil dep. (cm):                                            NH4 (ppm) at soil dep. (cm):                                            Total Inorganic N @dep(ppm):
!                                                                                                                                       0-5    5-15   15-30   30-45   45-60   60-80  80-100 100-150 150-200     0-5    5-15   15-30   30-45   45-60   60-80  80-100 100-150 150-200     0-5    5-15   15-30   30-45   45-60   60-80  80-100 100-150 150-200
@YEAR DOY   DAS  NAPC  NI#M    NIAD    NITD    NHTD   NURTD    NMNC    NITC    NDNC    NIMC    AMLC   NNMNC    NUCM    NLCC    TDNC    NI1D    NI2D    NI3D    NI4D    NI5D    NI6D    NI7D    NI8D    NI9D    NH1D    NH2D    NH3D    NH4D    NH5D    NH6D    NH7D    NH8D    NH9D    NT1D    NT2D    NT3D    NT4D    NT5D    NT6D    NT7D    NT8D    NT9D    
   15 076     0     0     0    31.4    22.0     9.3     0.0    0.00    0.00    0.00    0.00    0.00    0.00    0.00    0.00    0.00    2.00     1.5     1.2    1.00    1.00    0.80    0.80    0.50    0.50    1.00    0.80    0.60    0.40    0.40    0.30    0.30    0.20    0.20    3.00    2.30    1.80    1.40    1.40    1.10    1.10    0.70    0.70
   15 077     1     0     0    31.3    23.2     8.1     0.0    0.06    1.18    0.00    0.07    0.00   -0.01    0.00    0.00    0.00    2.11     1.6     1.3    1.05    1.05    0.84    0.84    0.53    0.53    0.86    0.68    0.52    0.35    0.35    0.26    0.26    0.18    0.18    2.97    2.27    1.80    1.40    1.40    1.10    1.10    0.70    0.70
   15 078     2     0     0    31.3    24.2     7.1     0.0    0.11    2.16    0.00    0.12    0.00   -0.02    0.00    0.00    0.00    2.23     1.7     1.3    1.09    1.09    0.87    0.87    0.55    0.55    0.74    0.58    0.46    0.30    0.31    0.23    0.23    0.16    0.16    2.97    2.24    1.79    1.40    1.40    1.10    1.10    0.71    0.71
   15 079     3     0     0    31.3    25.0     6.3     0.0    0.15    2.98    0.00    0.16    0.00   -0.01    0.00    0.00    0.00    2.34     1.7     1.4    1.12    1.12    0.90    0.90    0.57    0.57    0.65    0.50    0.41    0.27    0.28    0.20    0.21    0.14    0.14    2.99    2.21    1.79    1.39    1.40    1.10    1.10    0.71    0.71
   15 080     4     0     0    31.3    25.7     5.7     0.0    0.19    3.65    0.00    0.18    0.00    0.01    0.00    0.00    0.00    2.35     1.8     1.4    1.15    1.15    0.92    0.92    0.58    0.58    0.58    0.44    0.37    0.24    0.25    0.18    0.19    0.12    0.13    2.93    2.23    1.78    1.39    1.40    1.10    1.11    0.71    0.71
   15 081     5     0     0    31.4    26.2     5.1     0.0    0.22    4.21    0.00    0.20    0.00    0.02    0.00    0.00    0.00    2.39     1.8     1.4    1.17    1.17    0.94    0.94    0.60    0.60    0.53    0.40    0.33    0.22    0.22    0.16    0.17    0.11    0.12    2.92    2.23    1.78    1.39    1.40    1.10    1.11    0.71    0.71
   15 082     6     0     0    31.4    26.7     4.7     0.0    0.23    4.68    0.00    0.20    0.00    0.03    0.00    0.00    0.00    2.46     1.9     1.5    1.19    1.19    0.95    0.95    0.61    0.61    0.49    0.36    0.31    0.20    0.20    0.15    0.15    0.10    0.10    2.94    2.22    1.78    1.39    1.40    1.10    1.11    0.71    0.72
   15 083     7     0     0    31.4    27.1     4.3     0.0    0.24    5.07    0.00    0.20    0.00    0.03    0.00    0.00    0.00    2.52     1.9     1.5    1.21    1.21    0.96    0.97    0.62    0.62    0.45    0.34    0.28    0.18    0.19    0.14    0.14    0.09    0.09    2.97    2.20    1.78    1.39    1.40    1.10    1.11    0.71    0.72
   15 084     8     0     0    31.4    27.4     3.9     0.0    0.24    5.44    0.00    0.20    0.00    0.04    0.01    0.00    0.00    2.58     1.9     1.5    1.22    1.22    0.98    0.98    0.63    0.63    0.42    0.31    0.26    0.17    0.17    0.12    0.13    0.08    0.09    3.00    2.19    1.78    1.39    1.40    1.10    1.11    0.71    0.72
   15 085     9     0     0    31.4    27.8     3.6     0.0    0.25    5.79    0.00    0.21    0.00    0.05    0.01    0.00    0.00    2.63     1.9     1.5    1.24    1.24    0.99    0.99    0.64    0.64    0.39    0.29    0.24    0.15    0.16    0.11    0.12    0.08    0.08    3.02    2.18    1.77    1.39    1.40    1.10    1.11    0.71    0.72
   15 086    10     0     0    31.4    28.1     3.3     0.0    0.27    6.11    0.00    0.21    0.00    0.06    0.01    0.00    0.00    2.69     1.9     1.6    1.25    1.25    1.00    1.00    0.64    0.65    0.36    0.26    0.22    0.14    0.14    0.10    0.11    0.07    0.07    3.05    2.17    1.77    1.39    1.40    1.10    1.11    0.71    0.72
   15 087    11     0     0    31.4    28.4     3.0     0.0    0.29    6.42    0.00    0.22    0.00    0.07    0.02    0.00    0.00    2.74     1.9     1.6    1.26    1.27    1.01    1.01    0.65    0.65    0.33    0.24    0.20    0.13    0.13    0.09    0.10    0.06    0.07    3.07    2.15    1.77    1.39    1.40    1.10    1.11    0.71    0.72
   15 088    12     0     0    31.4    28.7     2.7     0.0    0.31    6.71    0.00    0.23    0.00    0.09    0.03    0.00    0.00    2.79     1.9     1.6    1.27    1.28    1.02    1.02    0.66    0.66    0.30    0.21    0.18    0.12    0.12    0.08    0.09    0.06    0.06    3.08    2.13    1.77    1.39    1.40    1.10    1.11    0.71    0.72
   15 089    13     0     0    31.4    28.9     2.4     0.0    0.35    6.99    0.00    0.24    0.00    0.10    0.04    0.00    0.00    2.26     2.2     1.6    1.28    1.29    1.03    1.03    0.66    0.67    0.27    0.18    0.16    0.10    0.11    0.08    0.08    0.05    0.06    2.52    2.34    1.80    1.39    1.40    1.10    1.11    0.71    0.72
   15 090    14     0     0    31.4    29.2     2.2     0.0    0.38    7.22    0.00    0.26    0.00    0.12    0.06    0.00    0.00    1.95     2.2     1.7    1.31    1.31    1.03    1.04    0.67    0.67    0.24    0.16    0.15    0.09    0.10    0.07    0.07    0.05    0.05    2.19    2.37    1.85    1.41    1.41    1.10    1.11    0.72    0.73
   15 091    15     0     0    31.4    29.3     2.0     0.0    0.41    7.44    0.00    0.27    0.00    0.14    0.10    0.00    0.00    1.97     2.1     1.7    1.34    1.32    1.04    1.04    0.67    0.68    0.22    0.14    0.14    0.09    0.09    0.06    0.07    0.04    0.05    2.19    2.29    1.87    1.43    1.41    1.11    1.10    0.72    0.73
   15 092    16     0     0    31.3    29.5     1.9     0.0    0.43    7.62    0.00    0.28    0.00    0.15    0.16    0.00    0.00    1.78     2.1     1.8    1.38    1.33    1.06    1.04    0.68    0.68    0.20    0.12    0.13    0.08    0.08    0.06    0.06    0.04    0.04    1.98    2.21    1.91    1.46    1.41    1.12    1.10    0.72    0.73
   15 093    17     0     0    31.2    29.5     1.7     0.0    0.45    7.78    0.00    0.29    0.00    0.17    0.22    0.09    0.00    1.75     1.9     1.8    1.40    1.33    1.08    1.05    0.69    0.69    0.19    0.11    0.12    0.07    0.08    0.05    0.06    0.04    0.04    1.94    2.05    1.87    1.47    1.41    1.13    1.11    0.73    0.73
   15 094    18     0     0    31.1    29.5     1.6     0.0    0.46    7.91    0.00    0.29    0.00    0.17    0.28    0.09    0.00    1.70     1.9     1.8    1.42    1.33    1.08    1.05    0.69    0.69    0.18    0.10    0.11    0.07    0.07    0.05    0.05    0.03    0.04    1.88    2.01    1.88    1.49    1.41    1.13    1.10    0.73    0.73
   15 095    19     0     0    31.0    29.5     1.5     0.0    0.46    8.03    0.00    0.29    0.00    0.17    0.35    0.16    0.00    1.65     1.8     1.7    1.43    1.34    1.09    1.06    0.70    0.70    0.17    0.10    0.10    0.06    0.07    0.05    0.05    0.03    0.03    1.82    1.89    1.85    1.49    1.41    1.14    1.10    0.73    0.73
   15 096    20     0     0    30.9    29.6     1.4     0.0    0.46    8.14    0.00    0.29    0.00    0.17    0.43    0.16    0.00    1.77     1.8     1.7    1.44    1.33    1.09    1.06    0.70    0.70    0.16    0.09    0.10    0.06    0.06    0.04    0.04    0.03    0.03    1.93    1.85    1.84    1.50    1.40    1.14    1.10    0.73    0.73
   15 097    21     0     0    30.9    29.6     1.3     0.0    0.46    8.24    0.00    0.29    0.00    0.17    0.48    0.16    0.00    1.96     1.7     1.7    1.43    1.33    1.09    1.05    0.71    0.70    0.15    0.08    0.09    0.06    0.06    0.04    0.04    0.03    0.03    2.11    1.81    1.82    1.49    1.39    1.13    1.09    0.73    0.73
   15 098    22    40     1    70.8    39.6    31.2     0.0    0.46    8.34    0.00    0.29    0.00    0.17    0.58    0.16    0.00   17.66     1.7     1.7    1.42    1.33    1.09    1.05    0.71    0.70   46.65    0.08    0.08    0.05    0.05    0.04    0.04    0.02    0.03   64.31    1.75    1.79    1.48    1.38    1.13    1.09    0.73    0.73
   15 099    23    40     1    70.4    41.4    29.0     0.0    0.46   10.33    0.00    0.29    0.00    0.17    0.96    0.16    0.00   20.39     1.7     1.7    1.43    1.33    1.09    1.05    0.71    0.70   43.39    0.07    0.08    0.05    0.05    0.03    0.03    0.02    0.02   63.78    1.73    1.79    1.48    1.38    1.13    1.09    0.73    0.73
   15 100    24    40     1    69.8    43.2    26.6     0.0    0.46   12.39    0.00    0.29    0.00    0.18    1.54    0.16    0.00   23.09     1.6     1.7    1.43    1.33    1.10    1.06    0.71    0.71   39.87    0.07    0.07    0.05    0.05    0.03    0.03    0.02    0.02   62.96    1.68    1.79    1.48    1.38    1.13    1.09    0.73    0.73
   15 101    25    40     1    69.3    45.1    24.2     0.0    0.49   14.59    0.00    0.29    0.00    0.19    2.02    0.16    0.00   26.06     1.6     1.7    1.43    1.34    1.10    1.06    0.71    0.71   36.24    0.06    0.07    0.04    0.04    0.03    0.03    0.02    0.02   62.29    1.64    1.79    1.48    1.38    1.13    1.09    0.73    0.73
   15 102    26    40     1    69.0    47.2    21.7     0.0    0.53   16.94    0.00    0.31    0.00    0.23    2.38    0.16    0.00   29.34     1.5     1.7    1.44    1.34    1.10    1.06    0.71    0.71   32.48    0.04    0.06    0.04    0.04    0.03    0.03    0.02    0.02   61.81    1.59    1.78    1.48    1.38    1.13    1.09    0.73    0.73
   15 103    27    40     1    68.8    49.5    19.3     0.0    0.61   19.36    0.00    0.32    0.00    0.28    2.60    0.16    0.00   32.81     1.5     1.7    1.44    1.35    1.11    1.07    0.72    0.71   28.74    0.03    0.05    0.03    0.04    0.02    0.03    0.02    0.02   61.55    1.54    1.78    1.48    1.38    1.13    1.09    0.73    0.74
   15 104    28    40     1    68.7    51.6    17.2     0.0    0.70   21.51    0.00    0.34    0.00    0.35    2.73    0.16    0.00   35.93     1.5     1.7    1.45    1.35    1.11    1.07    0.72    0.72   25.48    0.01    0.05    0.03    0.03    0.02    0.03    0.02    0.02   61.42    1.49    1.78    1.48    1.39    1.13    1.10    0.74    0.74
   15 105    29    40     1    68.7    53.3    15.4     0.0    0.80   23.34    0.00    0.35    0.00    0.44    2.81    0.16    0.00   38.60     1.4     1.7    1.45    1.35    1.11    1.07    0.72    0.72   22.77    0.00    0.04    0.03    0.03    0.02    0.03    0.02    0.02   61.37    1.44    1.77    1.48    1.39    1.14    1.10    0.74    0.74
   15 106    30    40     1    68.8    54.9    13.9     0.0    0.91   24.94    0.00    0.36    0.00    0.55    2.86    0.16    0.00   40.93     1.4     1.7    1.45    1.36    1.12    1.08    0.72    0.72   20.44    0.00    0.04    0.03    0.03    0.02    0.03    0.02    0.03   61.37    1.40    1.77    1.48    1.39    1.14    1.10    0.75    0.75
   15 107    31    40     1    68.8    56.3    12.6     0.0    1.04   26.41    0.00    0.37    0.00    0.67    2.91    0.16    0.00   13.11    14.7     2.4    1.61    1.39    1.13    1.08    0.73    0.73   18.33    0.00    0.04    0.03    0.03    0.02    0.03    0.02    0.03   31.44   14.74    2.46    1.63    1.42    1.15    1.11    0.75    0.75
   15 108    32    40     1    68.6    57.0    11.6     0.0    1.18   27.47    0.00    0.41    0.00    0.77    3.14    0.25    0.00   15.48    12.5     3.2    1.74    1.42    1.15    1.09    0.75    0.74   16.83    0.00    0.04    0.03    0.03    0.03    0.03    0.03    0.03   32.31   12.46    3.22    1.77    1.45    1.17    1.12    0.77    0.76
   15 109    33    40     1    68.5    58.2    10.3     0.0    1.30   28.82    0.00    0.44    0.00    0.86    3.34    0.27    0.00   18.39    11.5     3.4    1.79    1.43    1.16    1.10    0.75    0.74   14.74    0.00    0.04    0.03    0.03    0.03    0.03    0.03    0.03   33.13   11.45    3.42    1.82    1.47    1.18    1.13    0.78    0.77
   15 110    34    40     1    68.2    59.2     9.1     0.0    1.40   30.01    0.00    0.46    0.00    0.94    3.65    0.27    0.00   21.84    10.7     3.3    1.78    1.42    1.15    1.09    0.75    0.74   12.85    0.00    0.04    0.03    0.03    0.03    0.03    0.03    0.03   34.69   10.67    3.33    1.80    1.46    1.18    1.12    0.78    0.77
   15 111    35    40     1    67.9    59.8     8.1     0.0    1.49   30.96    0.00    0.47    0.00    1.02    4.07    0.27    0.00   25.13     9.8     3.2    1.75    1.41    1.15    1.09    0.75    0.74   11.29    0.00    0.04    0.03    0.03    0.03    0.03    0.03    0.03   36.42    9.78    3.22    1.78    1.45    1.18    1.12    0.78    0.77
   15 112    36    40     1    67.4    60.2     7.2     0.0    1.56   31.73    0.00    0.48    0.00    1.08    4.62    0.27    0.00   25.95     9.6     3.2    1.76    1.42    1.15    1.09    0.76    0.75    9.95    0.00    0.04    0.03    0.03    0.03    0.03    0.03    0.03   35.91    9.62    3.22    1.78    1.45    1.18    1.12    0.78    0.78
   15 113    37    40     1    66.9    60.4     6.4     0.0    1.63   32.43    0.00    0.48    0.00    1.14    5.22    0.27    0.00   26.69     9.4     3.2    1.76    1.42    1.16    1.10    0.76    0.75    8.78    0.00    0.04    0.03    0.03    0.02    0.03    0.03    0.03   35.47    9.41    3.20    1.78    1.45    1.18    1.12    0.78    0.78
   15 114    38    40     1    66.6    60.8     5.8     0.0    1.70   33.06    0.00    0.48    0.00    1.21    5.54    0.27    0.00   27.56     9.2     3.2    1.76    1.42    1.16    1.10    0.76    0.75    7.85    0.00    0.04    0.03    0.03    0.02    0.03    0.02    0.03   35.41    9.21    3.19    1.79    1.45    1.18    1.13    0.79    0.78
   15 115    39    40     1    66.2    60.9     5.3     0.0    1.78   33.61    0.00    0.49    0.00    1.30    6.03    0.27    0.00   28.30     8.9     3.1    1.76    1.43    1.16    1.10    0.77    0.76    7.07    0.00    0.04    0.03    0.03    0.02    0.03    0.02    0.03   35.37    8.90    3.17    1.79    1.46    1.19    1.13    0.79    0.78
   15 116    40    40     1    65.7    60.9     4.8     0.0    1.88   34.19    0.00    0.49    0.00    1.40    6.66    0.27    0.00   29.14     8.5     3.1    1.76    1.43    1.16    1.10    0.77    0.76    6.27    0.00    0.04    0.03    0.03    0.02    0.03    0.02    0.03   35.41    8.47    3.13    1.79    1.46    1.19    1.13    0.79    0.79
   15 117    41    40     1    65.0    60.7     4.3     0.0    2.00   34.74    0.00    0.49    0.00    1.52    7.48    0.27    0.00   26.64     9.6     3.1    1.76    1.43    1.17    1.11    0.77    0.76    5.42    0.00    0.04    0.03    0.03    0.03    0.03    0.03    0.03   32.06    9.58    3.09    1.79    1.47    1.19    1.14    0.80    0.79
   15 118    42    40     1    64.2    60.5     3.8     0.0    2.14   35.26    0.00    0.49    0.00    1.65    8.34    0.27    0.00   21.76    11.8     3.0    1.76    1.44    1.17    1.11    0.77    0.77    4.56    0.00    0.04    0.03    0.04    0.03    0.03    0.03    0.03   26.33   11.81    3.06    1.79    1.47    1.20    1.14    0.80    0.80
   15 119    43    40     1    63.9    60.5     3.4     0.0    2.29   35.63    0.00    0.49    0.00    1.80    8.81    0.27    0.00   21.60    11.8     3.1    1.75    1.43    1.17    1.11    0.78    0.77    4.00    0.01    0.04    0.03    0.04    0.03    0.03    0.03    0.03   25.60   11.84    3.09    1.78    1.47    1.20    1.14    0.80    0.80
   15 120    44    40     1    63.6    60.6     3.1     0.0    2.43   36.05    0.00    0.49    0.00    1.94    9.24    0.27    0.00   22.71    11.5     3.0    1.73    1.42    1.17    1.11    0.78    0.77    3.39    0.01    0.05    0.04    0.04    0.03    0.03    0.03    0.03   26.10   11.50    3.02    1.77    1.46    1.20    1.14    0.81    0.80
   15 121    45    40     1    63.1    60.4     2.7     0.0    2.58   36.41    0.00    0.49    0.00    2.09    9.90    0.27    0.00    9.57    10.8     6.5    2.62    1.55    1.18    1.11    0.78    0.77    2.83    0.01    0.05    0.04    0.04    0.03    0.03    0.03    0.03   12.40   10.79    6.53    2.66    1.59    1.22    1.14    0.81    0.80
   15 122    46    40     1    62.8    60.2     2.6     0.0    2.70   36.62    0.00    0.49    0.00    2.21   10.34    0.27    0.00    8.79     9.7     6.6    3.09    1.73    1.23    1.13    0.78    0.78    2.53    0.02    0.05    0.04    0.04    0.03    0.03    0.03    0.03   11.32    9.71    6.62    3.12    1.77    1.26    1.16    0.81    0.81
   15 123    47    40     1    62.3    59.9     2.3     0.0    2.81   36.84    0.00    0.49    0.00    2.32   10.99    0.27    0.00    6.22     8.9     6.9    3.56    1.94    1.29    1.15    0.79    0.78    2.17    0.02    0.05    0.04    0.04    0.03    0.03    0.03    0.03    8.40    8.90    6.93    3.60    1.99    1.33    1.19    0.82    0.81
   15 124    48    40     1    61.2    59.0     2.2     0.0    2.94   37.03    0.00    0.49    0.00    2.45   11.76    0.69    0.00    6.22     7.6     6.4    3.76    2.18    1.39    1.18    0.83    0.80    1.84    0.03    0.05    0.04    0.04    0.03    0.03    0.03    0.03    8.06    7.68    6.48    3.80    2.22    1.42    1.22    0.86    0.83
   15 125    49    40     1    60.4    58.5     1.9     0.0    3.13   37.28    0.00    0.49    0.00    2.64   12.75    0.69    0.00    6.04     7.1     6.3    3.84    2.25    1.42    1.20    0.84    0.80    1.42    0.03    0.06    0.05    0.05    0.04    0.04    0.03    0.03    7.45    7.12    6.35    3.88    2.30    1.46    1.24    0.86    0.83
   15 126    50    40     1    59.4    57.6     1.8     0.0    3.37   37.53    0.03    0.49    0.00    2.88   13.96    0.69    0.00    3.54     5.3     6.7    4.49    2.53    1.49    1.22    0.85    0.80    1.03    0.04    0.06    0.05    0.05    0.04    0.04    0.03    0.03    4.57    5.34    6.74    4.54    2.59    1.53    1.26    0.88    0.83
   15 127    51    40     1    58.1    56.4     1.7     0.0    3.64   37.73    0.15    0.49    0.00    3.15   14.74    1.31    0.00    3.36     4.5     5.9    4.43    2.80    1.66    1.29    0.88    0.82    0.83    0.05    0.07    0.06    0.06    0.04    0.04    0.03    0.03    4.18    4.59    5.94    4.48    2.85    1.71    1.34    0.92    0.85
   15 128    52    40     1    57.4    55.7     1.7     0.0    3.93   37.98    0.19    0.49    0.00    3.44   15.45    1.54    0.00    3.65     4.2     5.5    4.33    2.86    1.73    1.33    0.90    0.82    0.62    0.07    0.07    0.06    0.06    0.05    0.05    0.04    0.04    4.27    4.26    5.55    4.39    2.92    1.78    1.37    0.93    0.86
   15 129    53    40     1    56.9    55.2     1.7     0.0    4.24   38.23    0.20    0.49    0.00    3.75   16.30    1.54    0.00    3.59     4.1     5.3    4.28    2.86    1.74    1.34    0.90    0.83    0.47    0.08    0.08    0.06    0.07    0.05    0.05    0.04    0.04    4.05    4.19    5.36    4.35    2.93    1.79    1.39    0.94    0.87
   15 130    54    40     1    56.5    54.7     1.7     0.0    4.54   38.49    0.21    0.49    0.00    4.05   16.97    1.55    0.00    3.72     3.9     5.1    4.23    2.86    1.75    1.34    0.91    0.84    0.42    0.09    0.08    0.07    0.07    0.05    0.05    0.04    0.04    4.14    4.02    5.21    4.30    2.93    1.80    1.39    0.95    0.87
   15 131    55    40     1    56.1    54.4     1.8     0.0    4.81   38.74    0.21    0.49    0.00    4.32   17.59    1.55    0.00    4.06     3.8     5.0    4.15    2.83    1.74    1.34    0.91    0.84    0.39    0.10    0.08    0.07    0.07    0.05    0.05    0.04    0.04    4.45    3.93    5.07    4.22    2.90    1.80    1.39    0.95    0.88
   15 132    56    40     1    55.7    53.9     1.8     0.0    5.10   39.02    0.21    0.49    0.00    4.61   18.32    1.55    0.00    4.48     3.7     4.8    4.05    2.79    1.74    1.34    0.91    0.84    0.36    0.11    0.08    0.07    0.07    0.05    0.05    0.04    0.04    4.84    3.84    4.91    4.13    2.86    1.79    1.39    0.96    0.88
   15 133    57    40     1    55.0    53.2     1.8     0.0    5.43   39.32    0.21    0.49    0.00    4.94   19.35    1.55    0.00    3.62     3.8     4.7    4.00    2.78    1.75    1.35    0.92    0.85    0.33    0.13    0.09    0.07    0.07    0.05    0.06    0.04    0.04    3.95    3.91    4.77    4.08    2.86    1.80    1.40    0.96    0.89
   15 134    58    40     1    54.0    52.2     1.8     0.0    5.78   39.63    0.21    0.49    0.00    5.29   20.69    1.55    0.00    3.37     3.5     4.4    3.91    2.76    1.76    1.36    0.93    0.86    0.31    0.14    0.09    0.07    0.07    0.06    0.06    0.04    0.04    3.68    3.68    4.53    3.98    2.84    1.81    1.41    0.97    0.90
   15 135    59    40     1    52.8    50.9     1.9     0.0    6.14   39.95    0.21    0.49    0.00    5.65   22.25    1.55    0.00    2.93     3.3     4.2    3.79    2.72    1.76    1.36    0.93    0.86    0.30    0.15    0.09    0.08    0.08    0.06    0.06    0.05    0.04    3.23    3.46    4.32    3.87    2.80    1.81    1.42    0.98    0.91
   15 136    60    40     1    52.2    50.3     1.9     0.0    6.50   40.27    0.21    0.49    0.00    6.01   23.21    1.55    0.00    2.54     3.2     4.1    3.75    2.71    1.77    1.37    0.94    0.87    0.29    0.16    0.09    0.08    0.08    0.06    0.06    0.05    0.04    2.83    3.32    4.22    3.82    2.79    1.82    1.43    0.99    0.91
   15 137    61    40     1    51.2    49.3     1.9     0.0    6.85   40.60    0.21    0.49    0.00    6.36   24.52    1.55    0.00    2.14     2.9     3.9    3.66    2.69    1.77    1.38    0.95    0.88    0.28    0.17    0.10    0.08    0.08    0.06    0.06    0.05    0.04    2.41    3.09    4.04    3.74    2.77    1.83    1.44    0.99    0.92
   15 138    62    40     1    50.2    48.2     2.0     0.0    7.17   40.91    0.21    0.49    0.00    6.68   25.90    1.55    0.00    1.96     2.7     3.7    3.54    2.65    1.78    1.39    0.96    0.88    0.27    0.17    0.10    0.08    0.08    0.06    0.06    0.05    0.04    2.23    2.85    3.82    3.62    2.72    1.84    1.45    1.00    0.93
   15 139    63    40     1    48.8    46.9     2.0     0.0    7.48   41.22    0.21    0.49    0.00    6.99   27.54    1.55    0.00    0.90     2.6     3.6    3.39    2.58    1.78    1.40    0.96    0.89    0.25    0.17    0.10    0.08    0.08    0.06    0.06    0.05    0.04    1.15    2.79    3.69    3.47    2.66    1.84    1.46    1.01    0.93
   15 140    64    40     1    47.8    45.8     2.0     0.0    7.80   41.51    0.21    0.49    0.00    7.31   28.91    1.55    0.00    0.44     1.8     3.5    3.54    2.59    1.79    1.41    0.97    0.90    0.27    0.18    0.10    0.08    0.08    0.06    0.06    0.05    0.04    0.71    2.00    3.58    3.62    2.67    1.85    1.47    1.02    0.94
   15 141    65    40     1    47.6    45.6     2.0     0.0    8.09   41.76    0.21    0.49    0.00    7.60   29.36    1.55    0.00    0.49     1.6     3.2    3.59    2.71    1.84    1.41    0.98    0.90    0.28    0.20    0.10    0.08    0.08    0.06    0.06    0.05    0.04    0.77    1.76    3.34    3.67    2.79    1.90    1.47    1.02    0.95
   15 142    66    40     1    46.6    44.5     2.0     0.0    8.36   42.01    0.21    0.49    0.00    7.87   30.49    1.74    0.00    0.58     1.3     2.8    3.30    2.70    1.90    1.47    1.01    0.92    0.28    0.21    0.11    0.09    0.08    0.06    0.06    0.05    0.04    0.86    1.52    2.90    3.39    2.78    1.96    1.53    1.05    0.96
   15 143    67    40     1    45.5    43.5     2.0     0.0    8.62   42.27    0.21    0.49    0.00    8.13   31.78    1.74    0.00    0.50     1.2     2.5    3.16    2.66    1.92    1.48    1.01    0.92    0.28    0.21    0.11    0.09    0.08    0.06    0.06    0.05    0.04    0.78    1.38    2.64    3.24    2.74    1.98    1.53    1.06    0.97
   15 144    68    40     1    43.6    41.6     2.0     0.0    8.84   42.51    0.21    0.49    0.00    8.35   33.97    1.74    0.00    0.57     0.9     2.1    2.87    2.52    1.90    1.49    1.02    0.93    0.28    0.21    0.11    0.09    0.08    0.06    0.06    0.04    0.04    0.85    1.12    2.22    2.96    2.61    1.96    1.55    1.06    0.97
   15 145    69    40     1    41.7    39.7     2.0     0.0    9.05   42.75    0.21    0.49    0.00    8.56   36.10    1.74    0.00    0.30     0.7     1.8    2.62    2.38    1.87    1.49    1.02    0.93    0.27    0.21    0.11    0.09    0.08    0.06    0.06    0.04    0.04    0.57    0.93    1.89    2.71    2.46    1.94    1.55    1.06    0.97
   15 146    70    40     1    39.7    37.7     2.0     0.0    9.31   43.01    0.21    0.49    0.00    8.82   38.28    1.74    0.00    0.38     0.5     1.4    2.32    2.21    1.84    1.50    1.03    0.94    0.27    0.21    0.10    0.09    0.08    0.06    0.06    0.04    0.04    0.65    0.74    1.54    2.41    2.29    1.90    1.55    1.07    0.98
   15 147    71    40     1    38.1    36.1     2.0     0.0    9.59   43.29    0.21    0.49    0.00    9.10   40.18    1.74    0.00    0.44     0.4     1.1    2.06    2.04    1.80    1.50    1.03    0.94    0.27    0.22    0.10    0.08    0.08    0.06    0.06    0.04    0.04    0.71    0.61    1.25    2.14    2.12    1.86    1.56    1.07    0.98
   15 148    72    40     1    36.9    34.9     2.0     0.0    9.85   43.57    0.21    0.49    0.00    9.36   41.66    1.74    0.00    0.48     0.4     0.9    1.83    1.89    1.77    1.51    1.04    0.95    0.27    0.22    0.10    0.08    0.08    0.06    0.06    0.04    0.04    0.75    0.64    1.02    1.91    1.97    1.83    1.56    1.08    0.99
   15 149    73    40     1    35.8    33.9     2.0     0.0   10.12   43.84    0.21    0.49    0.00    9.63   42.99    1.74    0.00    0.52     0.5     0.7    1.62    1.74    1.72    1.51    1.04    0.95    0.26    0.22    0.10    0.08    0.08    0.06    0.06    0.04    0.04    0.78    0.67    0.84    1.70    1.81    1.78    1.57    1.09    0.99
   15 150    74    40     1    34.9    32.9     2.0     0.0   10.41   44.13    0.21    0.49    0.00    9.92   44.24    1.74    0.00    0.50     0.5     0.6    1.43    1.59    1.67    1.52    1.05    0.96    0.24    0.21    0.10    0.08    0.08    0.06    0.06    0.04    0.04    0.74    0.70    0.71    1.52    1.67    1.73    1.58    1.09    1.00
   15 151    75    40     1    34.1    32.1     2.0     0.0   10.69   44.42    0.21    0.49    0.00   10.20   45.33    1.74    0.00    0.54     0.5     0.5    1.27    1.45    1.62    1.53    1.06    0.96    0.23    0.21    0.10    0.08    0.08    0.06    0.06    0.04    0.04    0.77    0.72    0.61    1.36    1.53    1.68    1.59    1.10    1.00
[...]
   15 165    89     0     0    31.1    28.8     2.3     0.0   16.94   23.61    0.04    0.41    0.00   16.53   15.06    1.63    0.00    0.30     0.5     0.7    0.52    0.67    1.08    1.41    1.17    1.08    0.31    0.24    0.08    0.08    0.09    0.08    0.07    0.06    0.05    0.60    0.72    0.73    0.61    0.77    1.15    1.48    1.23    1.13
   15 166    90     0     0    31.4    29.0     2.4     0.0   17.48   24.07    0.04    0.41    0.00   17.07   15.31    1.63    0.00    0.23     0.4     0.7    0.65    0.68    1.06    1.40    1.18    1.09    0.33    0.27    0.09    0.08    0.09    0.08    0.07    0.06    0.05    0.56    0.67    0.75    0.73    0.77    1.14    1.47    1.24    1.14
   15 167    91     0     0    31.5    29.1     2.5     0.0   18.03   24.52    0.04    0.41    0.00   17.62   15.71    1.63    0.00    0.26     0.4     0.5    0.65    0.76    1.05    1.39    1.19    1.10    0.36    0.30    0.10    0.09    0.09    0.08    0.07    0.06    0.05    0.63    0.68    0.63    0.74    0.85    1.13    1.47    1.25    1.15
   15 168    92     0     0    31.6    29.0     2.5     0.0   18.58   25.02    0.04    0.41    0.00   18.17   16.23    1.63    0.00    0.36     0.4     0.4    0.61    0.79    1.05    1.39    1.20    1.11    0.37    0.31    0.11    0.09    0.09    0.08    0.07    0.06    0.05    0.73    0.72    0.54    0.70    0.88    1.12    1.46    1.26    1.16
   15 169    93     0     0    31.7    29.1     2.5     0.0   19.09   25.51    0.04    0.41    0.00   18.68   16.63    1.63    0.00    0.34     0.5     0.5    0.58    0.76    1.04    1.38    1.21    1.11    0.36    0.31    0.12    0.09    0.09    0.08    0.07    0.06    0.05    0.71    0.78    0.59    0.67    0.86    1.11    1.45    1.27    1.17
   15 170    94     0     0    31.7    29.1     2.6     0.0   19.54   25.92    0.04    0.41    0.00   19.13   17.06    1.63    0.00    0.39     0.5     0.5    0.53    0.70    1.07    1.36    1.22    1.12    0.38    0.31    0.12    0.10    0.09    0.08    0.07    0.06    0.05    0.78    0.79    0.60    0.62    0.80    1.14    1.44    1.27    1.18
   15 171    95     0     0    31.6    29.1     2.6     0.0   19.94   26.33    0.04    0.41    0.00   19.53   17.49    1.63    0.00    0.46     0.5     0.5    0.48    0.66    1.05    1.35    1.22    1.13    0.38    0.31    0.12    0.10    0.09    0.08    0.07    0.06    0.05    0.84    0.83    0.62    0.58    0.76    1.12    1.42    1.28    1.18
   15 172    96     0     0    31.6    29.0     2.6     0.0   20.32   26.73    0.04    0.41    0.00   19.91   17.96    1.63    0.00    0.53     0.4     0.5    0.50    0.63    1.02    1.34    1.23    1.14    0.38    0.31    0.13    0.10    0.09    0.07    0.07    0.06    0.05    0.91    0.74    0.64    0.60    0.72    1.09    1.41    1.29    1.19
   15 173    97     0     0    31.4    28.9     2.5     0.0   20.68   27.13    0.04    0.41    0.00   20.28   18.46    1.63    0.00    0.36     0.5     0.5    0.52    0.61    1.00    1.33    1.24    1.14    0.37    0.31    0.12    0.10    0.09    0.07    0.07    0.06    0.05    0.73    0.79    0.59    0.62    0.71    1.07    1.40    1.29    1.19
   15 174    98     0     0    31.3    28.8     2.5     0.0   21.06   27.50    0.04    0.41    0.00   20.65   18.92    1.63    0.00    0.39     0.5     0.5    0.48    0.59    0.97    1.31    1.24    1.15    0.39    0.31    0.13    0.10    0.09    0.07    0.07    0.05    0.05    0.78    0.81    0.62    0.58    0.68    1.04    1.38    1.30    1.20
   15 175    99     0     0    31.4    28.9     2.5     0.0   21.43   27.87    0.04    0.41    0.00   21.03   19.24    1.63    0.00    0.44     0.5     0.5    0.50    0.55    0.94    1.31    1.25    1.16    0.39    0.31    0.13    0.10    0.09    0.07    0.07    0.05    0.05    0.84    0.83    0.63    0.60    0.64    1.01    1.38    1.31    1.21
   15 176   100     0     0    31.3    28.8     2.5     0.0   21.82   28.28    0.04    0.41    0.00   21.41   19.73    1.63    0.00    0.54     0.4     0.5    0.51    0.52    0.92    1.30    1.26    1.16    0.39    0.31    0.13    0.10    0.09    0.07    0.07    0.05    0.05    0.93    0.73    0.65    0.61    0.61    0.99    1.37    1.31    1.21
   15 177   101     0     0    31.2    28.7     2.5     0.0   22.22   28.69    0.04    0.41    0.00   21.81   20.25    1.63    0.00    0.54     0.5     0.5    0.49    0.51    0.90    1.29    1.26    1.17    0.38    0.30    0.13    0.10    0.09    0.07    0.07    0.05    0.05    0.92    0.77    0.60    0.59    0.61    0.97    1.36    1.32    1.22
   15 178   102     0     0    31.1    28.6     2.5     0.0   22.64   29.13    0.04    0.41    0.00   22.24   20.71    1.63    0.00    0.42     0.5     0.5    0.50    0.48    0.87    1.27    1.27    1.18    0.37    0.30    0.12    0.10    0.09    0.07    0.07    0.05    0.05    0.79    0.81    0.62    0.60    0.57    0.94    1.34    1.33    1.23
   15 179   103     0     0    31.2    28.7     2.5     0.0   23.08   29.57    0.04    0.41    0.00   22.67   21.08    1.63    0.00    0.49     0.4     0.5    0.52    0.50    0.84    1.25    1.28    1.18    0.36    0.29    0.12    0.10    0.09    0.07    0.07    0.05    0.05    0.85    0.74    0.64    0.62    0.59    0.91    1.32    1.33    1.23
   15 180   104     0     0    31.3    28.8     2.5     0.0   23.55   30.04    0.04    0.41    0.00   23.14   21.43    1.63    0.00    0.57     0.5     0.5    0.50    0.52    0.83    1.24    1.29    1.19    0.35    0.29    0.12    0.10    0.09    0.07    0.07    0.06    0.05    0.91    0.78    0.60    0.60    0.61    0.90    1.31    1.34    1.24
   15 181   105     0     0    31.4    29.0     2.5     0.0   24.04   30.54    0.04    0.41    0.00   23.63   21.79    1.63    0.00    0.58     0.6     0.5    0.52    0.49    0.80    1.22    1.30    1.20    0.32    0.28    0.12    0.10    0.10    0.07    0.07    0.06    0.05    0.90    0.83    0.63    0.63    0.58    0.87    1.29    1.36    1.25
   15 182   106     0     0    31.7    29.2     2.5     0.0   24.58   31.08    0.04    0.41    0.00   24.17   22.06    1.63    0.00    0.64     0.6     0.5    0.52    0.51    0.79    1.22    1.31    1.21    0.30    0.27    0.12    0.10    0.10    0.08    0.07    0.06    0.05    0.94    0.83    0.66    0.62    0.61    0.87    1.29    1.37    1.27
   15 183   107     0     0    31.9    29.4     2.4     0.0   25.13   31.65    0.04    0.41    0.00   24.72   22.43    1.63    0.00    0.71     0.6     0.5    0.51    0.53    0.78    1.21    1.32    1.22    0.27    0.26    0.12    0.10    0.10    0.08    0.07    0.06    0.05    0.98    0.83    0.64    0.61    0.63    0.86    1.29    1.38    1.28
   15 184   108     0     0    31.9    29.5     2.4     0.0   25.70   32.25    0.04    0.41    0.00   25.30   22.96    1.63    0.00    0.77     0.6     0.5    0.54    0.51    0.76    1.20    1.34    1.23    0.25    0.24    0.12    0.10    0.10    0.08    0.07    0.06    0.05    1.02    0.81    0.60    0.64    0.61    0.84    1.27    1.39    1.29
   15 185   109     0     0    32.1    29.7     2.4     0.0   26.30   32.87    0.04    0.41    0.00   25.89   23.43    1.63    0.00    0.83     0.6     0.5    0.52    0.50    0.75    1.19    1.35    1.25    0.23    0.22    0.12    0.10    0.10    0.08    0.07    0.06    0.06    1.06    0.80    0.63    0.62    0.60    0.82    1.26    1.41    1.30
   15 186   110     0     0    32.2    29.9     2.4     0.0   26.92   33.53    0.04    0.41    0.00   26.51   23.87    1.63    0.00    0.89     0.6     0.5    0.50    0.53    0.73    1.18    1.36    1.26    0.22    0.20    0.11    0.10    0.10    0.08    0.07    0.06    0.06    1.10    0.80    0.61    0.60    0.63    0.81    1.25    1.42    1.32
   15 187   111     0     0    32.5    30.2     2.3     0.0   27.55   34.21    0.04    0.41    0.00   27.14   24.19    1.63    0.00    0.95     0.6     0.5    0.54    0.52    0.72    1.17    1.38    1.27    0.20    0.17    0.11    0.10    0.10    0.08    0.07    0.06    0.06    1.15    0.81    0.64    0.63    0.62    0.80    1.24    1.44    1.33
   15 188   112     0     0    32.7    30.5     2.3     0.0   28.20   34.90    0.04    0.41    0.00   27.79   24.64    1.63    0.00    1.01     0.7     0.5    0.53    0.52    0.71    1.16    1.40    1.29    0.19    0.16    0.10    0.10    0.10    0.08    0.07    0.06    0.06    1.20    0.82    0.63    0.63    0.61    0.79    1.23    1.46    1.35
   15 189   113     0     0    33.0    30.8     2.2     0.0   28.88   35.61    0.04    0.41    0.00   28.47   25.06    1.63    0.00    0.91     0.8     0.5    0.53    0.52    0.71    1.15    1.41    1.30    0.22    0.14    0.09    0.09    0.09    0.08    0.07    0.06    0.06    1.13    0.92    0.63    0.62    0.61    0.78    1.23    1.47    1.36
   15 190   114     0     0    33.2    30.9     2.3     0.0   29.55   36.26    0.04    0.41    0.00   29.14   25.54    1.63    0.00    0.80     0.8     0.5    0.53    0.52    0.70    1.15    1.43    1.32    0.26    0.15    0.09    0.09    0.09    0.08    0.07    0.06    0.06    1.06    0.96    0.63    0.62    0.61    0.78    1.22    1.49    1.38
   15 191   115     0     0    33.1    30.9     2.3     0.0   30.14   36.83    0.04    0.41    0.00   29.73   26.17    1.63    0.00    0.67     0.8     0.5    0.52    0.51    0.70    1.14    1.44    1.33    0.29    0.15    0.08    0.09    0.09    0.08    0.08    0.06    0.06    0.96    0.92    0.62    0.61    0.61    0.77    1.21    1.50    1.39
   15 192   116     0     0    33.1    30.8     2.3     0.0   30.65   37.35    0.04    0.41    0.00   30.24   26.74    1.63    0.00    0.47     0.8     0.5    0.51    0.51    0.68    1.13    1.45    1.34    0.30    0.15    0.08    0.09    0.09    0.08    0.08    0.06    0.06    0.76    0.91    0.62    0.60    0.60    0.76    1.20    1.51    1.40
   15 193   117     0     0    33.2    31.0     2.2     0.0   31.11   37.83    0.04    0.41    0.00   30.70   27.04    1.63    0.00    0.54     0.8     0.5    0.51    0.53    0.67    1.12    1.46    1.35    0.30    0.15    0.08    0.09    0.09    0.08    0.08    0.06    0.06    0.84    0.90    0.62    0.59    0.62    0.75    1.19    1.52    1.41
   15 194   118     0     0    33.3    31.1     2.2     0.0   31.53   38.28    0.04    0.41    0.00   31.12   27.37    1.63    0.00    0.53     0.7     0.5    0.52    0.52    0.66    1.10    1.47    1.36    0.29    0.14    0.08    0.08    0.09    0.08    0.07    0.06    0.06    0.82    0.89    0.61    0.61    0.61    0.74    1.18    1.53    1.42
   15 195   119     0     0    33.4    31.2     2.2     0.0   31.96   38.73    0.04    0.41    0.00   31.55   27.71    1.63    0.00    0.56     0.7     0.5    0.52    0.52    0.66    1.09    1.48    1.37    0.28    0.14    0.08    0.08    0.09    0.08    0.07    0.06    0.06    0.84    0.89    0.61    0.60    0.61    0.73    1.17    1.54    1.43
   15 196   120     0     0    33.6    31.4     2.2     0.0   32.41   39.22    0.04    0.41    0.00   32.01   28.03    1.63    0.00    0.59     0.8     0.5    0.52    0.52    0.65    1.09    1.49    1.38    0.26    0.13    0.07    0.08    0.09    0.08    0.07    0.06    0.06    0.85    0.89    0.62    0.60    0.60    0.73    1.16    1.55    1.44
   15 197   121     0     0    33.7    31.6     2.1     0.0   32.90   39.73    0.04    0.41    0.00   32.49   28.31    1.63    0.00    0.65     0.8     0.5    0.52    0.52    0.65    1.08    1.51    1.40    0.24    0.13    0.07    0.08    0.08    0.08    0.07    0.06    0.06    0.89    0.89    0.62    0.60    0.60    0.72    1.15    1.57    1.45
   15 198   122     0     0    34.0    31.9     2.1     0.0   33.39   40.26    0.04    0.41    0.00   32.98   28.58    1.63    0.00    0.71     0.8     0.6    0.53    0.52    0.64    1.07    1.52    1.41    0.23    0.12    0.07    0.07    0.08    0.08    0.07    0.06    0.06    0.94    0.90    0.62    0.60    0.60    0.72    1.15    1.58    1.47
   15 199   123     0     0    34.2    32.2     2.1     0.0   33.90   40.80    0.04    0.41    0.00   33.49   28.82    1.63    0.00    0.77     0.8     0.6    0.54    0.53    0.64    1.07    1.53    1.42    0.21    0.12    0.07    0.07    0.08    0.07    0.07    0.06    0.06    0.98    0.91    0.63    0.61    0.61    0.72    1.14    1.59    1.48
   15 200   124     0     0    34.5    32.5     2.0     0.0   34.41   41.36    0.04    0.41    0.00   34.00   29.03    1.63    0.00    0.83     0.8     0.6    0.55    0.54    0.65    1.07    1.55    1.44    0.20    0.11    0.06    0.07    0.07    0.07    0.07    0.06    0.06    1.03    0.92    0.64    0.61    0.61    0.72    1.14    1.61    1.49
   15 201   125     0     0    34.9    32.9     2.0     0.0   34.93   41.92    0.04    0.41    0.00   34.52   29.23    1.63    0.00    0.89     0.8     0.6    0.56    0.55    0.65    1.07    1.56    1.45    0.19    0.10    0.06    0.06    0.07    0.07    0.07    0.06    0.06    1.09    0.93    0.64    0.62    0.62    0.72    1.14    1.62    1.51
   15 202   126     0     0    35.2    33.2     1.9     0.0   35.45   42.47    0.04    0.41    0.00   35.04   29.42    1.63    0.00    0.95     0.8     0.6    0.57    0.56    0.66    1.07    1.58    1.46    0.18    0.10    0.06    0.06    0.07    0.07    0.07    0.06    0.06    1.14    0.94    0.65    0.63    0.63    0.72    1.14    1.64    1.52
   15 203   127     0     0    35.5    33.6     1.9     0.0   35.96   43.02    0.04    0.41    0.00   35.55   29.60    1.63    0.00    1.01     0.9     0.6    0.58    0.57    0.66    1.07    1.59    1.48    0.18    0.09    0.06    0.06    0.06    0.07    0.07    0.06    0.06    1.18    0.95    0.66    0.64    0.64    0.73    1.14    1.65    1.54
   15 204   128     0     0    35.9    34.0     1.9     0.0   36.47   43.56    0.04    0.41    0.00   36.06   29.76    1.63    0.00    1.06     0.9     0.6    0.59    0.58    0.67    1.08    1.61    1.49    0.17    0.09    0.06    0.06    0.06    0.06    0.07    0.06    0.06    1.23    0.96    0.67    0.65    0.64    0.73    1.14    1.67    1.55
   15 205   129     0     0    36.2    34.4     1.8     0.0   36.97   44.09    0.04    0.41    0.00   36.56   29.91    1.63    0.00    1.11     0.9     0.6    0.60    0.59    0.68    1.08    1.62    1.51    0.17    0.08    0.05    0.06    0.06    0.06    0.07    0.06    0.06    1.28    0.98    0.68    0.65    0.65    0.74    1.15    1.69    1.57
   15 206   130     0     0    36.6    34.7     1.8     0.0   37.46   44.61    0.04    0.41    0.00   37.05   30.05    1.63    0.00    1.17     0.9     0.6    0.61    0.60    0.68    1.08    1.64    1.52    0.16    0.08    0.05    0.05    0.06    0.06    0.07    0.06    0.06    1.33    0.99    0.69    0.66    0.66    0.74    1.15    1.70    1.58
   15 207   131     0     0    36.9    35.1     1.8     0.0   37.92   45.09    0.04    0.41    0.00   37.51   30.18    1.63    0.00    1.22     0.9     0.6    0.62    0.61    0.69    1.09    1.65    1.54    0.16    0.08    0.05    0.05    0.06    0.06    0.06    0.06    0.06    1.38    1.00    0.70    0.67    0.67    0.75    1.15    1.72    1.60
   15 208   132     0     0    37.2    35.4     1.8     0.0   38.34   45.52    0.04    0.41    0.00   37.93   30.30    1.63    0.00    1.27     0.9     0.7    0.63    0.62    0.70    1.09    1.67    1.55    0.16    0.08    0.05    0.05    0.06    0.06    0.06    0.06    0.06    1.43    1.01    0.70    0.68    0.68    0.75    1.15    1.73    1.61
   15 209   133     0     0    37.5    35.7     1.8     0.0   38.74   45.93    0.04    0.41    0.00   38.33   30.41    1.63    0.00    1.32     0.9     0.7    0.63    0.63    0.70    1.09    1.68    1.56    0.19    0.07    0.05    0.05    0.05    0.05    0.06    0.06    0.06    1.51    1.01    0.71    0.68    0.68    0.76    1.15    1.74    1.62
   15 210   134     0     0    37.7    35.9     1.8     0.0   39.12   46.31    0.04    0.41    0.00   38.71   30.61    1.63    0.00    1.23     0.9     0.7    0.64    0.63    0.71    1.09    1.69    1.57    0.21    0.07    0.05    0.05    0.05    0.05    0.06    0.06    0.06    1.43    1.02    0.72    0.69    0.69    0.76    1.15    1.75    1.63
   15 211   135     0     0    37.8    36.1     1.8     0.0   39.46   46.67    0.04    0.41    0.00   39.05   30.79    1.63    0.00    1.16     1.0     0.7    0.64    0.64    0.71    1.10    1.70    1.58    0.21    0.07    0.05    0.05    0.05    0.05    0.06    0.06    0.06    1.37    1.02    0.72    0.69    0.69    0.76    1.15    1.76    1.64
   15 212   136     0     0    38.0    36.2     1.7     0.0   39.77   47.00    0.04    0.41    0.00   39.37   30.94    1.63    0.00    1.13     1.0     0.7    0.65    0.64    0.72    1.10    1.71    1.59    0.21    0.07    0.05    0.05    0.05    0.05    0.06    0.06    0.06    1.33    1.03    0.73    0.70    0.70    0.77    1.15    1.77    1.65
   15 213   137     0     0    38.2    36.5     1.7     0.0   40.09   47.34    0.04    0.41    0.00   39.68   31.04    1.63    0.00    1.16     1.0     0.7    0.65    0.65    0.72    1.10    1.72    1.60    0.20    0.07    0.05    0.05    0.05    0.05    0.06    0.06    0.06    1.36    1.03    0.73    0.70    0.70    0.77    1.15    1.78    1.66
   15 214   138     0     0    38.4    36.7     1.7     0.0   40.38   47.66    0.04    0.41    0.00   39.98   31.14    1.63    0.00    1.20     1.0     0.7    0.66    0.65    0.72    1.10    1.73    1.62    0.20    0.07    0.05    0.05    0.05    0.05    0.05    0.06    0.06    1.40    1.03    0.73    0.70    0.70    0.77    1.16    1.79    1.67
   15 215   139     0     0    38.6    36.9     1.7     0.0   40.69   47.98    0.04    0.41    0.00   40.28   31.22    1.63    0.00    1.24     1.0     0.7    0.66    0.66    0.73    1.10    1.74    1.63    0.19    0.07    0.05    0.05    0.05    0.05    0.05    0.06    0.06    1.43    1.04    0.74    0.71    0.71    0.78    1.16    1.80    1.68
   15 216   140     0     0    38.9    37.2     1.7     0.0   41.01   48.31    0.04    0.41    0.00   40.60   31.30    1.63    0.00    1.28     1.0     0.7    0.67    0.66    0.73    1.11    1.75    1.64    0.19    0.07    0.05    0.05    0.05    0.05    0.05    0.06    0.06    1.47    1.04    0.74    0.71    0.71    0.78    1.16    1.81    1.69
   15 217   141     0     0    39.1    37.5     1.6     0.0   41.35   48.67    0.04    0.41    0.00   40.95   31.37    1.63    0.00    1.33     1.0     0.7    0.67    0.67    0.74    1.11    1.76    1.65    0.18    0.06    0.05    0.05    0.05    0.05    0.05    0.06    0.06    1.51    1.05    0.75    0.72    0.72    0.79    1.16    1.82    1.70
   15 218   142     0     0    39.4    37.8     1.6     0.0   41.72   49.05    0.04    0.41    0.00   41.31   31.44    1.63    0.00    1.37     1.0     0.7    0.68    0.68    0.75    1.12    1.78    1.66    0.18    0.06    0.05    0.05    0.05    0.04    0.05    0.06    0.06    1.54    1.05    0.76    0.73    0.73    0.79    1.17    1.83    1.72
   15 219   143     0     0    39.7    38.1     1.6     0.0   42.11   49.45    0.04    0.41    0.00   41.70   31.51    1.63    0.00    1.41     1.0     0.7    0.69    0.69    0.75    1.12    1.79    1.67    0.17    0.06    0.05    0.04    0.05    0.04    0.05    0.06    0.06    1.58    1.06    0.77    0.73    0.73    0.80    1.17    1.85    1.73
   15 220   144     0     0    40.1    38.5     1.6     0.0   42.51   49.87    0.04    0.41    0.00   42.10   31.58    1.63    0.00    1.45     1.0     0.7    0.70    0.70    0.76    1.13    1.80    1.69    0.16    0.06    0.04    0.04    0.05    0.04    0.05    0.06    0.06    1.61    1.07    0.78    0.74    0.74    0.80    1.18    1.86    1.74
   15 221   145     0     0    40.4    38.8     1.6     0.0   42.95   50.32    0.04    0.41    0.00   42.54   31.65    1.63    0.00    1.51     1.0     0.7    0.71    0.71    0.77    1.14    1.82    1.70    0.16    0.05    0.04    0.04    0.05    0.04    0.05    0.06    0.06    1.67    1.08    0.79    0.75    0.75    0.81    1.19    1.88    1.76
