*Soil Organic Matter daily output file

*DSSAT Cropping System Model Ver. 4.8.5.000 -release  OCT 24, 2025 14:14:59

*RUN   1        : 1                         CSCER048 TUDU1501    1
 MODEL          : CSCER048 - Wheat
 EXPERIMENT     : TUDU1501 WH
 DATA PATH      :
 TREATMENT  1   : 1                         CSCER048
  
@YEAR DOY   DAS    OMAC    SCDD    SOCD    SC0D    SCTD   SOMCT    LCTD    ONAC    SNDD    SOND    SN0D    SNTD   SOMNT    LNTD
   15 076     0       0   31671  264376       0  264376  263496   880.0    0.00  1075.0 15399.2    0.00 15399.2 15385.2   14.00
   15 077     1       0   31991  264364       0  264364  263494   870.4    0.00  1085.2 15399.2    0.00 15399.2 15385.1   14.18
   15 078     2       0   31991  264355       0  264355  263493   862.1    0.00  1085.2 15399.2    0.00 15399.2 15384.9   14.33
   15 079     3       0   31991  264347       0  264347  263491   855.5    0.00  1085.2 15399.2    0.00 15399.2 15384.8   14.44
   15 080     4       0   31975  264341       0  264341  263490   850.9    0.00  1084.7 15399.2    0.00 15399.2 15384.7   14.52
   15 081     5       0   31970  264338       0  264338  263490   847.9    0.00  1084.5 15399.2    0.00 15399.2 15384.6   14.57
   15 082     6       0   31970  264337       0  264337  263490   847.0    0.00  1084.5 15399.2    0.00 15399.2 15384.6   14.59
   15 083     7       0   31970  264336       0  264336  263489   846.9    0.00  1084.5 15399.2    0.00 15399.2 15384.6   14.59
   15 084     8       0   31970  264336       0  264336  263489   846.9    0.00  1084.5 15399.2    0.00 15399.2 15384.6   14.59
   15 085     9       0   31966  264335       0  264335  263489   846.2    0.00  1084.4 15399.2    0.00 15399.2 15384.6   14.60
   15 086    10       0   31960  264334       0  264334  263489   845.2    0.00  1084.2 15399.2    0.00 15399.2 15384.5   14.62
   15 087    11       0   31959  264332       0  264332  263489   843.5    0.00  1084.2 15399.1    0.00 15399.1 15384.5   14.64
   15 088    12       0   31954  264329       0  264329  263488   840.8    0.00  1084.0 15399.1    0.00 15399.1 15384.4   14.69
   15 089    13       0   31915  264324       0  264324  263487   837.2    0.00  1082.8 15399.1    0.00 15399.1 15384.4   14.75
   15 090    14       0   31899  264320       0  264320  263486   834.0    0.00  1082.2 15399.1    0.00 15399.1 15384.3   14.79
   15 091    15       0   31883  264316       0  264316  263486   830.5    0.00  1081.7 15399.1    0.00 15399.1 15384.2   14.85
   15 092    16       0   31865  264313       0  264313  263485   828.0    0.00  1081.1 15399.1    0.00 15399.1 15384.2   14.88
   15 093    17       0   31865  264311       0  264311  263485   826.5    0.00  1081.1 15399.0    0.00 15399.0 15384.1   14.91
   15 094    18       0   31849  264311       0  264311  263485   826.4    0.00  1080.6 15399.0    0.00 15399.0 15384.1   14.91
   15 095    19       0   31849  264311       0  264311  263485   826.4    0.00  1080.6 15399.0    0.00 15399.0 15384.1   14.91
   15 096    20       0   31848  264311       0  264311  263485   826.4    0.00  1080.6 15399.0    0.00 15399.0 15384.1   14.91
   15 097    21       0   31848  264311       0  264311  263485   826.4    0.00  1080.6 15399.0    0.00 15399.0 15384.1   14.91
   15 098    22       0   31848  264311       0  264311  263485   826.4    0.00  1080.6 15399.0    0.00 15399.0 15384.1   14.91
   15 099    23       0   31848  264311       0  264311  263485   826.4    0.00  1080.6 15399.0    0.00 15399.0 15384.1   14.91
   15 100    24       0   31848  264311       0  264311  263485   826.4    0.00  1080.6 15399.0    0.00 15399.0 15384.1   14.91
   15 101    25       0   31848  264308       0  264308  263484   824.2    0.00  1080.6 15399.0    0.00 15399.0 15384.1   14.94
   15 102    26       0   31848  264303       0  264303  263483   819.6    0.00  1080.6 15399.0    0.00 15399.0 15384.0   15.01
   15 103    27       0   31848  264294       0  264294  263481   812.8    0.00  1080.6 15398.9    0.00 15398.9 15383.8   15.11
   15 104    28       0   31848  264284       0  264284  263479   805.0    0.00  1080.6 15398.9    0.01 15398.9 15383.6   15.22
   15 105    29       0   31848  264274       1  264274  263477   797.1    0.00  1080.6 15398.8    0.03 15398.8 15383.5   15.32
   15 106    30       0   31848  264264       1  264263  263474   788.9    0.00  1080.6 15398.7    0.04 15398.7 15383.2   15.43
   15 107    31       0   31782  264253       1  264251  263471   780.3    0.00  1078.4 15398.6    0.06 15398.5 15383.0   15.53
   15 108    32       0   31782  264239       2  264237  263468   768.7    0.00  1078.4 15398.5    0.07 15398.4 15382.8   15.65
   15 109    33       0   31782  264227       2  264225  263466   758.4    0.00  1078.4 15398.4    0.07 15398.4 15382.6   15.74
   15 110    34       0   31782  264216       2  264215  263465   749.8    0.00  1078.4 15398.3    0.07 15398.3 15382.5   15.81
   15 111    35       0   31782  264209       2  264207  263463   743.5    0.00  1078.4 15398.3    0.07 15398.2 15382.3   15.86
   15 112    36       0   31782  264203       2  264201  263462   739.0    0.00  1078.4 15398.2    0.07 15398.1 15382.2   15.89
   15 113    37       0   31782  264198       2  264196  263461   734.7    0.00  1078.4 15398.1    0.07 15398.1 15382.2   15.92
   15 114    38       0   31782  264192       2  264190  263460   730.4    0.00  1078.4 15398.1    0.07 15398.0 15382.1   15.95
   15 115    39       0   31779  264186       2  264184  263458   725.8    0.00  1078.3 15398.0    0.07 15397.9 15381.9   15.98
   15 116    40       0   31776  264179       2  264177  263457   720.6    0.00  1078.2 15397.9    0.07 15397.8 15381.8   16.02
   15 117    41       0   31765  264171       2  264169  263455   714.4    0.00  1077.9 15397.8    0.07 15397.7 15381.7   16.05
   15 118    42       0   31754  264161       2  264159  263452   706.6    0.00  1077.5 15397.6    0.07 15397.6 15381.5   16.09
   15 119    43       0   31754  264150       2  264148  263450   698.0    0.00  1077.5 15397.5    0.07 15397.4 15381.3   16.13
   15 120    44       0   31752  264139       2  264137  263448   689.7    0.00  1077.4 15397.4    0.07 15397.3 15381.1   16.16
   15 121    45       0   31672  264129       2  264128  263446   682.0    0.00  1074.9 15397.2    0.07 15397.1 15381.0   16.18
   15 122    46       0   31672  264122       2  264120  263444   676.7    0.00  1074.9 15397.1    0.07 15397.0 15380.8   16.19
   15 123    47       0   31672  264116       2  264114  263442   672.1    0.00  1074.9 15397.0    0.07 15396.9 15380.7   16.20
   15 124    48       0   31672  264109       2  264107  263440   666.7    0.00  1074.9 15396.8    0.07 15396.8 15380.6   16.21
   15 125    49       0   31672  264098       2  264096  263438   658.3    0.00  1074.9 15396.7    0.07 15396.6 15380.4   16.22
   15 126    50       0   31672  264084       2  264082  263434   647.7    0.00  1074.9 15396.4    0.07 15396.4 15380.1   16.23
   15 127    51       0   31672  264071       3  264069  263430   638.3    0.00  1074.8 15396.2    0.10 15396.1 15379.9   16.23
   15 128    52       0   31672  264057       4  264054  263427   627.3    0.00  1074.8 15395.9    0.13 15395.8 15379.6   16.22
   15 129    53       0   31672  264043       5  264038  263423   615.8    0.00  1074.8 15395.7    0.17 15395.5 15379.3   16.20
   15 130    54       0   31672  264030       6  264024  263419   605.3    0.00  1074.8 15395.4    0.21 15395.2 15379.0   16.17
   15 131    55       0   31671  264018       7  264012  263415   596.4    0.00  1074.8 15395.2    0.24 15394.9 15378.8   16.13
   15 132    56       0   31671  264007       8  263999  263411   588.0    0.00  1074.8 15394.9    0.27 15394.6 15378.5   16.10
   15 133    57       0   31671  263995       8  263987  263407   579.7    0.00  1074.8 15394.6    0.30 15394.3 15378.2   16.06
   15 134    58       0   31671  263981       8  263972  263403   569.9    0.00  1074.8 15394.3    0.30 15394.0 15377.9   16.01
   15 135    59       0   31670  263968      10  263958  263398   560.4    0.00  1074.8 15393.9    0.35 15393.6 15377.6   15.95
   15 136    60       0   31670  263956      11  263945  263393   551.9    0.00  1074.8 15393.6    0.39 15393.2 15377.3   15.89
   15 137    61       0   31670  263945      12  263933  263389   544.4    0.00  1074.7 15393.3    0.43 15392.9 15377.1   15.84
   15 138    62       0   31669  263935      13  263922  263384   537.9    0.00  1074.7 15393.0    0.47 15392.6 15376.8   15.79
   15 139    63       0   31669  263927      15  263913  263380   532.3    0.00  1074.7 15392.8    0.52 15392.3 15376.5   15.74
   15 140    64       0   31669  263918      16  263902  263376   525.5    0.00  1074.7 15392.5    0.56 15392.0 15376.3   15.68
   15 141    65       0   31669  263908      16  263892  263373   519.9    0.00  1074.7 15392.2    0.57 15391.7 15376.0   15.63
   15 142    66       0   31668  263900      16  263883  263369   514.4    0.00  1074.7 15392.0    0.58 15391.4 15375.8   15.57
   15 143    67       0   31668  263892      17  263875  263366   509.1    0.00  1074.7 15391.7    0.59 15391.1 15375.6   15.52
   15 144    68       0   31668  263885      17  263868  263363   504.6    0.00  1074.7 15391.5    0.60 15390.9 15375.5   15.47
   15 145    69       0   31668  263878      17  263861  263361   500.4    0.00  1074.7 15391.3    0.62 15390.7 15375.3   15.42
   15 146    70       0   31667  263871      18  263853  263358   495.4    0.00  1074.7 15391.1    0.63 15390.5 15375.1   15.37
   15 147    71       0   31667  263863      18  263845  263354   490.5    0.00  1074.7 15390.8    0.64 15390.2 15374.9   15.31
   15 148    72       0   31667  263855      18  263837  263351   485.9    0.00  1074.6 15390.6    0.65 15389.9 15374.7   15.25
   15 149    73       0   31667  263848      19  263829  263347   481.8    0.00  1074.6 15390.3    0.66 15389.7 15374.5   15.20
   15 150    74       0   31666  263840      19  263821  263343   477.8    0.00  1074.6 15390.1    0.68 15389.4 15374.2   15.16
   15 151    75       0   31666  263833      20  263814  263340   474.0    0.00  1074.6 15389.8    0.69 15389.1 15374.0   15.11
   15 152    76       0   31666  263826      20  263806  263335   470.2    0.00  1074.6 15389.5    0.71 15388.8 15373.7   15.06
   15 153    77       0   31665  263817      21  263796  263330   466.0    0.00  1074.6 15389.2    0.73 15388.4 15373.4   15.01
   15 154    78       0   31665  263808      21  263786  263325   461.8    0.00  1074.6 15388.8    0.75 15388.0 15373.1   14.96
   15 155    79       0   31664  263798      22  263777  263319   457.8    0.00  1074.6 15388.4    0.77 15387.6 15372.7   14.91
   15 156    80       0   31664  263789      22  263767  263313   453.9    0.00  1074.5 15388.0    0.79 15387.2 15372.3   14.86
   15 157    81       0   31663  263779      23  263756  263306   450.1    0.00  1074.5 15387.5    0.81 15386.7 15371.9   14.81
   15 158    82       0   31663  263769      24  263745  263300   445.6    0.00  1074.5 15387.1    0.83 15386.2 15371.5   14.75
   15 159    83       0   31662  263759      24  263735  263293   441.7    0.00  1074.5 15386.6    0.85 15385.8 15371.1   14.69
   15 160    84       0   31662  263746      24  263722  263287   435.0    0.00  1074.5 15386.1    0.85 15385.2 15370.7   14.59
   15 161    85       0   31661  263733      24  263709  263281   428.4    0.00  1074.4 15385.6    0.85 15384.8 15370.3   14.47
   15 162    86       0   31660  263722      24  263698  263276   422.5    0.00  1074.4 15385.2    0.85 15384.3 15370.0   14.37
   15 163    87       0   31660  263713      24  263688  263270   417.7    0.00  1074.4 15384.8    0.85 15383.9 15369.6   14.29
   15 164    88       0   31659  263704      24  263680  263266   414.1    0.00  1074.4 15384.4    0.85 15383.6 15369.3   14.22
   15 165    89       0   31659  263694      24  263670  263261   409.4    0.00  1074.4 15384.0    0.85 15383.1 15369.0   14.14
   15 166    90       0   31658  263682      24  263658  263254   403.4    0.00  1074.3 15383.5    0.85 15382.7 15368.6   14.03
   15 167    91       0   31657  263669      24  263645  263247   397.4    0.00  1074.3 15383.0    0.85 15382.1 15368.2   13.91
   15 168    92       0   31657  263656      24  263632  263241   390.9    0.00  1074.3 15382.5    0.85 15381.6 15367.8   13.78
   15 169    93       0   31656  263644      24  263620  263235   385.0    0.00  1074.3 15382.0    0.85 15381.1 15367.5   13.66
   15 170    94       0   31655  263634      24  263610  263229   380.2    0.00  1074.3 15381.6    0.85 15380.7 15367.2   13.56
   15 171    95       0   31655  263625      24  263600  263225   375.7    0.00  1074.2 15381.2    0.85 15380.3 15366.9   13.47
   15 172    96       0   31655  263616      24  263592  263220   371.5    0.00  1074.2 15380.8    0.85 15380.0 15366.6   13.38
   15 173    97       0   31654  263608      24  263583  263216   367.7    0.00  1074.2 15380.5    0.85 15379.6 15366.3   13.30
   15 174    98       0   31654  263599      24  263575  263211   364.0    0.00  1074.2 15380.1    0.85 15379.3 15366.1   13.21
   15 175    99       0   31653  263591      24  263567  263206   360.2    0.00  1074.2 15379.8    0.85 15378.9 15365.8   13.13
   15 176   100       0   31653  263582      24  263558  263202   356.2    0.00  1074.2 15379.4    0.85 15378.6 15365.5   13.04
   15 177   101       0   31652  263574      24  263549  263197   352.5    0.00  1074.2 15379.0    0.85 15378.2 15365.2   12.96
   15 178   102       0   31652  263565      24  263541  263192   349.1    0.00  1074.1 15378.7    0.85 15377.8 15364.9   12.88
   15 179   103       0   31651  263556      24  263532  263186   345.9    0.00  1074.1 15378.3    0.85 15377.4 15364.6   12.80
   15 180   104       0   31650  263547      24  263523  263180   342.8    0.00  1074.1 15377.8    0.85 15377.0 15364.3   12.73
   15 181   105       0   31650  263538      24  263514  263174   339.8    0.00  1074.1 15377.4    0.85 15376.6 15363.9   12.66
   15 182   106       0   31649  263529      24  263505  263168   337.0    0.00  1074.1 15377.0    0.85 15376.1 15363.5   12.60
   15 183   107       0   31649  263520      24  263495  263161   334.5    0.00  1074.0 15376.5    0.85 15375.6 15363.1   12.54
   15 184   108       0   31648  263511      24  263486  263154   332.3    0.00  1074.0 15376.0    0.85 15375.2 15362.7   12.49
   15 185   109       0   31647  263502      24  263478  263147   330.2    0.00  1074.0 15375.6    0.85 15374.7 15362.3   12.44
   15 186   110       0   31647  263493      24  263469  263141   328.3    0.00  1074.0 15375.1    0.85 15374.2 15361.8   12.40
   15 187   111       0   31646  263485      24  263460  263134   326.7    0.00  1074.0 15374.6    0.85 15373.7 15361.4   12.36
   15 188   112       0   31646  263476      24  263452  263127   325.0    0.00  1073.9 15374.1    0.85 15373.3 15360.9   12.32
   15 189   113       0   31645  263466      24  263442  263120   322.4    0.00  1073.9 15373.6    0.85 15372.7 15360.5   12.26
   15 190   114       0   31644  263456      24  263432  263113   319.1    0.00  1073.9 15373.0    0.85 15372.2 15360.0   12.18
   15 191   115       0   31644  263448      24  263423  263106   316.7    0.00  1073.9 15372.6    0.85 15371.7 15359.6   12.12
   15 192   116       0   31643  263441      24  263417  263101   315.3    0.00  1073.9 15372.2    0.85 15371.4 15359.3   12.08
   15 193   117       0   31643  263435      24  263411  263097   314.2    0.00  1073.9 15371.9    0.85 15371.0 15359.0   12.05
   15 194   118       0   31643  263430      24  263406  263092   313.4    0.00  1073.8 15371.6    0.85 15370.7 15358.7   12.03
   15 195   119       0   31642  263425      24  263400  263088   312.5    0.00  1073.8 15371.3    0.85 15370.4 15358.4   12.01
   15 196   120       0   31642  263419      24  263395  263083   311.6    0.00  1073.8 15370.9    0.85 15370.1 15358.1   11.99
   15 197   121       0   31641  263413      24  263389  263078   310.7    0.00  1073.8 15370.6    0.85 15369.7 15357.8   11.97
   15 198   122       0   31641  263407      24  263383  263073   309.9    0.00  1073.8 15370.2    0.85 15369.4 15357.4   11.95
   15 199   123       0   31641  263402      24  263377  263068   309.3    0.00  1073.8 15369.8    0.85 15369.0 15357.1   11.93
   15 200   124       0   31640  263395      24  263371  263063   308.5    0.00  1073.8 15369.5    0.85 15368.6 15356.7   11.92
   15 201   125       0   31640  263389      24  263365  263057   307.7    0.00  1073.7 15369.1    0.85 15368.2 15356.3   11.90
   15 202   126       0   31639  263383      24  263359  263051   307.1    0.00  1073.7 15368.7    0.85 15367.8 15355.9   11.88
   15 203   127       0   31639  263377      24  263352  263046   306.5    0.00  1073.7 15368.3    0.85 15367.4 15355.6   11.87
   15 204   128       0   31638  263371      24  263346  263040   306.1    0.00  1073.7 15367.9    0.85 15367.0 15355.2   11.86
   15 205   129       0   31638  263365      24  263340  263035   305.4    0.00  1073.7 15367.5    0.85 15366.6 15354.8   11.84
   15 206   130       0   31638  263358      24  263334  263029   304.8    0.00  1073.7 15367.1    0.85 15366.2 15354.4   11.82
   15 207   131       0   31637  263353      24  263328  263024   304.2    0.00  1073.7 15366.7    0.85 15365.9 15354.1   11.81
   15 208   132       0   31637  263347      24  263323  263019   303.6    0.00  1073.6 15366.4    0.85 15365.5 15353.7   11.79
   15 209   133       0   31636  263342      24  263318  263015   302.7    0.00  1073.6 15366.0    0.85 15365.2 15353.4   11.77
   15 210   134       0   31636  263337      24  263313  263011   302.0    0.00  1073.6 15365.7    0.85 15364.9 15353.1   11.75
   15 211   135       0   31636  263333      24  263308  263007   301.4    0.00  1073.6 15365.5    0.85 15364.6 15352.9   11.73
   15 212   136       0   31636  263329      24  263304  263003   301.0    0.00  1073.6 15365.2    0.85 15364.3 15352.6   11.72
   15 213   137       0   31635  263325      24  263300  263000   300.7    0.00  1073.6 15364.9    0.85 15364.1 15352.4   11.71
   15 214   138       0   31635  263321      24  263297  262996   300.4    0.00  1073.6 15364.7    0.85 15363.8 15352.1   11.71
   15 215   139       0   31635  263317      24  263293  262993   300.2    0.00  1073.6 15364.4    0.85 15363.6 15351.9   11.70
   15 216   140       0   31634  263313      24  263289  262989   300.0    0.00  1073.6 15364.2    0.85 15363.3 15351.6   11.70
   15 217   141       0   31634  263309      24  263285  262985   299.9    0.00  1073.6 15363.9    0.85 15363.0 15351.3   11.69
   15 218   142       0   31634  263304      24  263280  262980   299.7    0.00  1073.5 15363.6    0.85 15362.7 15351.0   11.69
   15 219   143       0   31633  263300      24  263275  262976   299.6    0.00  1073.5 15363.2    0.85 15362.4 15350.7   11.69
   15 220   144       0   31633  263295      24  263270  262971   299.5    0.00  1073.5 15362.9    0.85 15362.0 15350.3   11.68
   15 221   145       0   31633  263289      24  263265  262966   299.1    0.00  1073.5 15362.5    0.85 15361.6 15350.0   11.67

*DSSAT Cropping System Model Ver. 4.8.5.000 -release  OCT 24, 2025 14:14:59

*RUN   2        : 2                         CSCER048 TUDU1501    2
 MODEL          : CSCER048 - Wheat
 EXPERIMENT     : TUDU1501 WH
 DATA PATH      :
 TREATMENT  2   : 2                         CSCER048
  
@YEAR DOY   DAS    OMAC    SCDD    SOCD    SC0D    SCTD   SOMCT    LCTD    ONAC    SNDD    SOND    SN0D    SNTD   SOMNT    LNTD
   15 076     0       0   31671  264376       0  264376  263496   880.0    0.00  1075.0 15399.2    0.00 15399.2 15385.2   14.00
   15 077     1       0   31991  264364       0  264364  263494   870.4    0.00  1085.2 15399.2    0.00 15399.2 15385.1   14.18
   15 078     2       0   31991  264355       0  264355  263493   862.1    0.00  1085.2 15399.2    0.00 15399.2 15384.9   14.33
   15 079     3       0   31991  264347       0  264347  263491   855.5    0.00  1085.2 15399.2    0.00 15399.2 15384.8   14.44
   15 080     4       0   31975  264341       0  264341  263490   850.9    0.00  1084.7 15399.2    0.00 15399.2 15384.7   14.52
   15 081     5       0   31970  264338       0  264338  263490   847.9    0.00  1084.5 15399.2    0.00 15399.2 15384.6   14.57
   15 082     6       0   31970  264337       0  264337  263490   847.0    0.00  1084.5 15399.2    0.00 15399.2 15384.6   14.59
   15 083     7       0   31970  264336       0  264336  263489   846.9    0.00  1084.5 15399.2    0.00 15399.2 15384.6   14.59
   15 084     8       0   31970  264336       0  264336  263489   846.9    0.00  1084.5 15399.2    0.00 15399.2 15384.6   14.59
   15 085     9       0   31966  264335       0  264335  263489   846.2    0.00  1084.4 15399.2    0.00 15399.2 15384.6   14.60
   15 086    10       0   31960  264334       0  264334  263489   845.2    0.00  1084.2 15399.2    0.00 15399.2 15384.5   14.62
   15 087    11       0   31959  264332       0  264332  263489   843.5    0.00  1084.2 15399.1    0.00 15399.1 15384.5   14.64
   15 088    12       0   31954  264329       0  264329  263488   840.8    0.00  1084.0 15399.1    0.00 15399.1 15384.4   14.69
   15 089    13       0   31915  264324       0  264324  263487   837.2    0.00  1082.8 15399.1    0.00 15399.1 15384.4   14.75
   15 090    14       0   31899  264320       0  264320  263486   834.0    0.00  1082.2 15399.1    0.00 15399.1 15384.3   14.79
   15 091    15       0   31883  264316       0  264316  263486   830.5    0.00  1081.7 15399.1    0.00 15399.1 15384.2   14.85
   15 092    16       0   31865  264313       0  264313  263485   828.0    0.00  1081.1 15399.1    0.00 15399.1 15384.2   14.88
   15 093    17       0   31865  264311       0  264311  263485   826.5    0.00  1081.1 15399.0    0.00 15399.0 15384.1   14.91
   15 094    18       0   31849  264311       0  264311  263485   826.4    0.00  1080.6 15399.0    0.00 15399.0 15384.1   14.91
   15 095    19       0   31849  264311       0  264311  263485   826.4    0.00  1080.6 15399.0    0.00 15399.0 15384.1   14.91
   15 096    20       0   31848  264311       0  264311  263485   826.4    0.00  1080.6 15399.0    0.00 15399.0 15384.1   14.91
   15 097    21       0   31848  264311       0  264311  263485   826.4    0.00  1080.6 15399.0    0.00 15399.0 15384.1   14.91
   15 098    22       0   31848  264311       0  264311  263485   826.4    0.00  1080.6 15399.0    0.00 15399.0 15384.1   14.91
   15 099    23       0   31848  264311       0  264311  263485   826.4    0.00  1080.6 15399.0    0.00 15399.0 15384.1   14.91
   15 100    24       0   31848  264311       0  264311  263485   826.4    0.00  1080.6 15399.0    0.00 15399.0 15384.1   14.91
   15 101    25       0   31848  264308       0  264308  263484   824.2    0.00  1080.6 15399.0    0.00 15399.0 15384.1   14.94
   15 102    26       0   31848  264303       0  264303  263483   819.6    0.00  1080.6 15399.0    0.00 15399.0 15384.0   15.01
   15 103    27       0   31848  264294       0  264294  263481   812.8    0.00  1080.6 15398.9    0.00 15398.9 15383.8   15.11
   15 104    28       0   31848  264284       0  264284  263479   805.0    0.00  1080.6 15398.9    0.01 15398.9 15383.6   15.22
   15 105    29       0   31848  264274       1  264274  263477   797.1    0.00  1080.6 15398.8    0.03 15398.8 15383.5   15.32
   15 106    30       0   31848  264264       1  264263  263474   788.9    0.00  1080.6 15398.7    0.04 15398.7 15383.2   15.43
   15 107    31       0   31782  264253       2  264251  263471   780.3    0.00  1078.4 15398.6    0.06 15398.5 15383.0   15.53
   15 108    32       0   31782  264239       2  264237  263468   768.7    0.00  1078.4 15398.5    0.07 15398.4 15382.8   15.65
   15 109    33       0   31782  264227       2  264225  263466   758.4    0.00  1078.4 15398.4    0.07 15398.4 15382.6   15.74
   15 110    34       0   31782  264216       2  264215  263465   749.8    0.00  1078.4 15398.3    0.07 15398.3 15382.5   15.81
   15 111    35       0   31782  264209       2  264207  263463   743.5    0.00  1078.4 15398.3    0.07 15398.2 15382.3   15.86
   15 112    36       0   31782  264203       2  264201  263462   739.0    0.00  1078.4 15398.2    0.07 15398.1 15382.2   15.89
   15 113    37       0   31782  264198       2  264196  263461   734.7    0.00  1078.4 15398.1    0.07 15398.1 15382.2   15.92
   15 114    38       0   31782  264192       2  264190  263460   730.4    0.00  1078.4 15398.1    0.07 15398.0 15382.1   15.95
   15 115    39       0   31779  264186       2  264184  263458   725.9    0.00  1078.3 15398.0    0.07 15397.9 15381.9   15.98
   15 116    40       0   31776  264179       2  264177  263457   720.6    0.00  1078.2 15397.9    0.07 15397.8 15381.8   16.02
   15 117    41       0   31765  264171       2  264169  263455   714.5    0.00  1077.9 15397.8    0.07 15397.7 15381.7   16.05
   15 118    42       0   31754  264161       2  264159  263452   706.7    0.00  1077.5 15397.6    0.07 15397.6 15381.5   16.09
   15 119    43       0   31754  264150       2  264148  263450   698.2    0.00  1077.5 15397.5    0.07 15397.4 15381.3   16.13
   15 120    44       0   31752  264140       2  264138  263448   690.0    0.00  1077.4 15397.4    0.07 15397.3 15381.1   16.16
   15 121    45       0   31672  264130       2  264128  263446   682.3    0.00  1074.9 15397.2    0.07 15397.1 15381.0   16.18
   15 122    46       0   31672  264123       2  264121  263444   677.0    0.00  1074.9 15397.1    0.07 15397.0 15380.8   16.19
   15 123    47       0   31672  264116       2  264115  263442   672.4    0.00  1074.9 15397.0    0.07 15396.9 15380.7   16.20
   15 124    48       0   31672  264109       2  264107  263440   667.0    0.00  1074.9 15396.8    0.07 15396.8 15380.6   16.21
   15 125    49       0   31672  264098       2  264096  263438   658.5    0.00  1074.9 15396.7    0.07 15396.6 15380.4   16.22
   15 126    50       0   31672  264084       2  264082  263434   648.0    0.00  1074.9 15396.4    0.07 15396.4 15380.1   16.23
   15 127    51       0   31672  264072       3  264069  263430   638.6    0.00  1074.8 15396.2    0.10 15396.1 15379.9   16.23
   15 128    52       0   31672  264058       4  264054  263427   627.5    0.00  1074.8 15395.9    0.13 15395.8 15379.6   16.22
   15 129    53       0   31672  264043       5  264039  263422   616.0    0.00  1074.8 15395.7    0.17 15395.5 15379.3   16.20
   15 130    54       0   31672  264030       6  264024  263419   605.5    0.00  1074.8 15395.4    0.21 15395.2 15379.0   16.17
   15 131    55       0   31671  264018       7  264012  263415   596.6    0.00  1074.8 15395.2    0.24 15394.9 15378.8   16.14
   15 132    56       0   31671  264007       8  264000  263411   588.3    0.00  1074.8 15394.9    0.28 15394.6 15378.5   16.10
   15 133    57       0   31671  263995       8  263987  263407   579.9    0.00  1074.8 15394.6    0.30 15394.3 15378.2   16.07
   15 134    58       0   31671  263981       8  263973  263403   570.2    0.00  1074.8 15394.3    0.30 15394.0 15377.9   16.01
   15 135    59       0   31670  263968      10  263959  263398   560.8    0.00  1074.8 15394.0    0.35 15393.6 15377.6   15.96
   15 136    60       0   31670  263956      11  263946  263393   552.3    0.00  1074.8 15393.6    0.39 15393.2 15377.3   15.90
   15 137    61       0   31670  263945      12  263933  263389   544.8    0.00  1074.7 15393.3    0.43 15392.9 15377.1   15.84
   15 138    62       0   31669  263936      13  263923  263384   538.3    0.00  1074.7 15393.1    0.48 15392.6 15376.8   15.79
   15 139    63       0   31669  263928      15  263913  263380   532.7    0.00  1074.7 15392.8    0.53 15392.3 15376.5   15.75
   15 140    64       0   31669  263918      16  263902  263376   525.9    0.00  1074.7 15392.5    0.57 15392.0 15376.3   15.69
   15 141    65       0   31669  263909      16  263893  263372   520.3    0.00  1074.7 15392.2    0.58 15391.7 15376.0   15.63
   15 142    66       0   31668  263900      17  263884  263369   514.7    0.00  1074.7 15392.0    0.59 15391.4 15375.8   15.58
   15 143    67       0   31668  263892      17  263875  263366   509.5    0.00  1074.7 15391.8    0.60 15391.1 15375.6   15.52
   15 144    68       0   31668  263885      17  263868  263363   504.9    0.00  1074.7 15391.5    0.61 15390.9 15375.5   15.48
   15 145    69       0   31668  263879      18  263861  263361   500.7    0.00  1074.7 15391.3    0.62 15390.7 15375.3   15.43
   15 146    70       0   31667  263871      18  263853  263358   495.7    0.00  1074.7 15391.1    0.64 15390.5 15375.1   15.37
   15 147    71       0   31667  263863      18  263845  263354   490.7    0.00  1074.7 15390.8    0.65 15390.2 15374.9   15.31
   15 148    72       0   31667  263855      19  263837  263351   486.2    0.00  1074.6 15390.6    0.66 15389.9 15374.7   15.26
   15 149    73       0   31667  263848      19  263829  263347   482.1    0.00  1074.6 15390.3    0.67 15389.7 15374.5   15.21
   15 150    74       0   31666  263841      19  263821  263343   478.1    0.00  1074.6 15390.1    0.69 15389.4 15374.2   15.16
   15 151    75       0   31666  263834      20  263814  263340   474.3    0.00  1074.6 15389.8    0.70 15389.1 15374.0   15.12
   15 152    76       0   31666  263826      20  263806  263335   470.5    0.00  1074.6 15389.5    0.72 15388.8 15373.7   15.07
   15 153    77       0   31665  263818      21  263797  263330   466.4    0.00  1074.6 15389.2    0.74 15388.4 15373.4   15.02
   15 154    78       0   31665  263808      21  263787  263325   462.2    0.00  1074.6 15388.8    0.76 15388.0 15373.1   14.97
   15 155    79       0   31664  263799      22  263777  263319   458.3    0.00  1074.6 15388.4    0.78 15387.6 15372.7   14.92
   15 156    80       0   31664  263790      23  263767  263313   454.4    0.00  1074.5 15388.0    0.80 15387.2 15372.3   14.87
   15 157    81       0   31663  263780      23  263757  263306   450.7    0.00  1074.5 15387.6    0.82 15386.7 15371.9   14.82
   15 158    82       0   31663  263770      24  263746  263300   446.2    0.00  1074.5 15387.1    0.84 15386.3 15371.5   14.76
   15 159    83       0   31662  263760      25  263736  263293   442.3    0.00  1074.5 15386.6    0.86 15385.8 15371.1   14.71
   15 160    84       0   31662  263747      25  263722  263287   435.6    0.00  1074.5 15386.1    0.86 15385.3 15370.7   14.60
   15 161    85       0   31661  263735      25  263710  263281   429.0    0.00  1074.4 15385.6    0.86 15384.8 15370.3   14.49
   15 162    86       0   31661  263724      25  263699  263276   423.2    0.00  1074.4 15385.2    0.86 15384.4 15370.0   14.39
   15 163    87       0   31660  263714      25  263689  263271   418.5    0.00  1074.4 15384.8    0.86 15384.0 15369.6   14.30
   15 164    88       0   31659  263705      25  263681  263266   414.9    0.00  1074.4 15384.4    0.86 15383.6 15369.3   14.24
   15 165    89       0   31659  263696      25  263671  263261   410.3    0.00  1074.4 15384.0    0.86 15383.2 15369.0   14.16
   15 166    90       0   31658  263683      25  263659  263255   404.3    0.00  1074.3 15383.5    0.86 15382.7 15368.6   14.05
   15 167    91       0   31657  263671      25  263646  263248   398.3    0.00  1074.3 15383.0    0.86 15382.2 15368.2   13.93
   15 168    92       0   31657  263657      25  263633  263241   391.7    0.00  1074.3 15382.5    0.86 15381.6 15367.8   13.80
   15 169    93       0   31656  263645      25  263621  263235   385.8    0.00  1074.3 15382.0    0.86 15381.2 15367.5   13.68
   15 170    94       0   31655  263635      25  263611  263230   381.0    0.00  1074.3 15381.6    0.86 15380.7 15367.2   13.58
   15 171    95       0   31655  263626      25  263601  263225   376.5    0.00  1074.2 15381.2    0.86 15380.4 15366.9   13.49
   15 172    96       0   31655  263617      25  263593  263220   372.3    0.00  1074.2 15380.9    0.86 15380.0 15366.6   13.40
   15 173    97       0   31654  263609      25  263584  263216   368.4    0.00  1074.2 15380.5    0.86 15379.7 15366.3   13.32
   15 174    98       0   31654  263601      25  263576  263211   364.7    0.00  1074.2 15380.2    0.86 15379.3 15366.1   13.24
   15 175    99       0   31653  263592      25  263568  263207   361.0    0.00  1074.2 15379.8    0.86 15379.0 15365.8   13.15
   15 176   100       0   31653  263584      25  263559  263202   357.0    0.00  1074.2 15379.5    0.86 15378.6 15365.5   13.06
   15 177   101       0   31652  263575      25  263550  263197   353.3    0.00  1074.2 15379.1    0.86 15378.2 15365.2   12.98
   15 178   102       0   31652  263566      25  263542  263192   349.9    0.00  1074.1 15378.7    0.86 15377.8 15364.9   12.90
   15 179   103       0   31651  263558      25  263533  263186   346.6    0.00  1074.1 15378.3    0.86 15377.4 15364.6   12.82
   15 180   104       0   31650  263549      25  263524  263181   343.5    0.00  1074.1 15377.9    0.86 15377.0 15364.3   12.75
   15 181   105       0   31650  263540      25  263515  263174   340.5    0.00  1074.1 15377.5    0.86 15376.6 15363.9   12.68
   15 182   106       0   31649  263530      25  263506  263168   337.7    0.00  1074.1 15377.0    0.86 15376.1 15363.5   12.62
   15 183   107       0   31649  263521      25  263497  263161   335.3    0.00  1074.0 15376.5    0.86 15375.7 15363.1   12.57
   15 184   108       0   31648  263512      25  263488  263155   333.1    0.00  1074.0 15376.1    0.86 15375.2 15362.7   12.52
   15 185   109       0   31648  263504      25  263479  263148   331.1    0.00  1074.0 15375.6    0.86 15374.7 15362.3   12.47
   15 186   110       0   31647  263495      25  263470  263141   329.2    0.00  1074.0 15375.1    0.86 15374.3 15361.8   12.43
   15 187   111       0   31646  263487      25  263462  263134   327.6    0.00  1074.0 15374.7    0.86 15373.8 15361.4   12.39
   15 188   112       0   31646  263478      25  263453  263127   325.9    0.00  1073.9 15374.2    0.86 15373.3 15361.0   12.35
   15 189   113       0   31645  263468      25  263444  263120   323.4    0.00  1073.9 15373.6    0.86 15372.8 15360.5   12.29
   15 190   114       0   31645  263458      25  263433  263113   320.1    0.00  1073.9 15373.1    0.86 15372.3 15360.0   12.21
   15 191   115       0   31644  263450      25  263425  263107   317.8    0.00  1073.9 15372.7    0.86 15371.8 15359.7   12.15
   15 192   116       0   31644  263443      25  263418  263102   316.4    0.00  1073.9 15372.3    0.86 15371.4 15359.3   12.11
   15 193   117       0   31643  263437      25  263413  263097   315.3    0.00  1073.9 15372.0    0.86 15371.1 15359.0   12.09
   15 194   118       0   31643  263432      25  263408  263093   314.5    0.00  1073.8 15371.6    0.86 15370.8 15358.7   12.07
   15 195   119       0   31642  263427      25  263402  263089   313.6    0.00  1073.8 15371.3    0.86 15370.5 15358.4   12.05
   15 196   120       0   31642  263421      25  263397  263084   312.7    0.00  1073.8 15371.0    0.86 15370.1 15358.1   12.03
   15 197   121       0   31642  263416      25  263391  263079   311.9    0.00  1073.8 15370.7    0.86 15369.8 15357.8   12.01
   15 198   122       0   31641  263410      25  263385  263074   311.1    0.00  1073.8 15370.3    0.86 15369.4 15357.4   11.99
   15 199   123       0   31641  263404      25  263379  263069   310.5    0.00  1073.8 15369.9    0.86 15369.1 15357.1   11.97
   15 200   124       0   31640  263398      25  263373  263063   309.7    0.00  1073.8 15369.5    0.86 15368.7 15356.7   11.95
   15 201   125       0   31640  263391      25  263367  263058   309.0    0.00  1073.7 15369.1    0.86 15368.3 15356.3   11.94
   15 202   126       0   31640  263385      25  263361  263052   308.4    0.00  1073.7 15368.7    0.86 15367.9 15356.0   11.92
   15 203   127       0   31639  263379      25  263355  263047   307.9    0.00  1073.7 15368.3    0.86 15367.5 15355.6   11.91
   15 204   128       0   31639  263373      25  263349  263041   307.4    0.00  1073.7 15368.0    0.86 15367.1 15355.2   11.90
   15 205   129       0   31638  263367      25  263342  263036   306.8    0.00  1073.7 15367.6    0.86 15366.7 15354.8   11.88
   15 206   130       0   31638  263361      25  263336  263030   306.2    0.00  1073.7 15367.2    0.86 15366.3 15354.4   11.87
   15 207   131       0   31637  263355      25  263331  263025   305.6    0.00  1073.7 15366.8    0.86 15365.9 15354.1   11.85
   15 208   132       0   31637  263350      25  263325  263020   305.0    0.00  1073.7 15366.5    0.86 15365.6 15353.8   11.84
   15 209   133       0   31637  263344      25  263320  263016   304.1    0.00  1073.6 15366.1    0.86 15365.3 15353.5   11.81
   15 210   134       0   31636  263340      25  263315  263011   303.5    0.00  1073.6 15365.8    0.86 15365.0 15353.2   11.79
   15 211   135       0   31636  263335      25  263310  263008   302.9    0.00  1073.6 15365.5    0.86 15364.7 15352.9   11.78
   15 212   136       0   31636  263331      25  263307  263004   302.5    0.00  1073.6 15365.3    0.86 15364.4 15352.6   11.77
   15 213   137       0   31636  263327      25  263303  263000   302.2    0.00  1073.6 15365.0    0.86 15364.2 15352.4   11.76
   15 214   138       0   31635  263324      25  263299  262997   301.9    0.00  1073.6 15364.8    0.86 15363.9 15352.2   11.75
   15 215   139       0   31635  263320      25  263295  262993   301.7    0.00  1073.6 15364.5    0.86 15363.6 15351.9   11.75
   15 216   140       0   31635  263316      25  263291  262990   301.5    0.00  1073.6 15364.2    0.86 15363.4 15351.6   11.74
   15 217   141       0   31634  263312      25  263287  262986   301.4    0.00  1073.6 15363.9    0.86 15363.1 15351.3   11.74
   15 218   142       0   31634  263307      25  263282  262981   301.2    0.00  1073.5 15363.6    0.86 15362.8 15351.0   11.73
   15 219   143       0   31634  263302      25  263278  262977   301.1    0.00  1073.5 15363.3    0.86 15362.4 15350.7   11.73
   15 220   144       0   31633  263297      25  263273  262972   301.1    0.00  1073.5 15363.0    0.86 15362.1 15350.4   11.73
   15 221   145       0   31633  263292      25  263267  262966   300.7    0.00  1073.5 15362.6    0.86 15361.7 15350.0   11.72

*DSSAT Cropping System Model Ver. 4.8.5.000 -release  OCT 24, 2025 14:14:59

*RUN   3        : 3                         CSCER048 TUDU1501    3
 MODEL          : CSCER048 - Wheat
 EXPERIMENT     : TUDU1501 WH
 DATA PATH      :
 TREATMENT  3   : 3                         CSCER048
  
@YEAR DOY   DAS    OMAC    SCDD    SOCD    SC0D    SCTD   SOMCT    LCTD    ONAC    SNDD    SOND    SN0D    SNTD   SOMNT    LNTD
   15 076     0       0   31671  264376       0  264376  263496   880.0    0.00  1075.0 15399.2    0.00 15399.2 15385.2   14.00
   15 077     1       0   31991  264364       0  264364  263494   870.4    0.00  1085.2 15399.2    0.00 15399.2 15385.1   14.18
   15 078     2       0   31991  264355       0  264355  263493   862.1    0.00  1085.2 15399.2    0.00 15399.2 15384.9   14.33
   15 079     3       0   31991  264347       0  264347  263491   855.5    0.00  1085.2 15399.2    0.00 15399.2 15384.8   14.44
   15 080     4       0   31975  264341       0  264341  263490   850.9    0.00  1084.7 15399.2    0.00 15399.2 15384.7   14.52
   15 081     5       0   31970  264338       0  264338  263490   847.9    0.00  1084.5 15399.2    0.00 15399.2 15384.6   14.57
   15 082     6       0   31970  264337       0  264337  263490   847.0    0.00  1084.5 15399.2    0.00 15399.2 15384.6   14.59
   15 083     7       0   31970  264336       0  264336  263489   846.9    0.00  1084.5 15399.2    0.00 15399.2 15384.6   14.59
   15 084     8       0   31970  264336       0  264336  263489   846.9    0.00  1084.5 15399.2    0.00 15399.2 15384.6   14.59
   15 085     9       0   31966  264335       0  264335  263489   846.2    0.00  1084.4 15399.2    0.00 15399.2 15384.6   14.60
   15 086    10       0   31960  264334       0  264334  263489   845.2    0.00  1084.2 15399.2    0.00 15399.2 15384.5   14.62
   15 087    11       0   31959  264332       0  264332  263489   843.5    0.00  1084.2 15399.1    0.00 15399.1 15384.5   14.64
   15 088    12       0   31954  264329       0  264329  263488   840.8    0.00  1084.0 15399.1    0.00 15399.1 15384.4   14.69
   15 089    13       0   31915  264324       0  264324  263487   837.2    0.00  1082.8 15399.1    0.00 15399.1 15384.4   14.75
   15 090    14       0   31899  264320       0  264320  263486   834.0    0.00  1082.2 15399.1    0.00 15399.1 15384.3   14.79
   15 091    15       0   31883  264316       0  264316  263486   830.5    0.00  1081.7 15399.1    0.00 15399.1 15384.2   14.85
   15 092    16       0   31865  264313       0  264313  263485   828.0    0.00  1081.1 15399.1    0.00 15399.1 15384.2   14.88
   15 093    17       0   31865  264311       0  264311  263485   826.5    0.00  1081.1 15399.0    0.00 15399.0 15384.1   14.91
   15 094    18       0   31849  264311       0  264311  263485   826.4    0.00  1080.6 15399.0    0.00 15399.0 15384.1   14.91
   15 095    19       0   31849  264311       0  264311  263485   826.4    0.00  1080.6 15399.0    0.00 15399.0 15384.1   14.91
   15 096    20       0   31848  264311       0  264311  263485   826.4    0.00  1080.6 15399.0    0.00 15399.0 15384.1   14.91
   15 097    21       0   31848  264311       0  264311  263485   826.4    0.00  1080.6 15399.0    0.00 15399.0 15384.1   14.91
   15 098    22       0   31848  264311       0  264311  263485   826.4    0.00  1080.6 15399.0    0.00 15399.0 15384.1   14.91
   15 099    23       0   31848  264311       0  264311  263485   826.4    0.00  1080.6 15399.0    0.00 15399.0 15384.1   14.91
   15 100    24       0   31848  264311       0  264311  263485   826.4    0.00  1080.6 15399.0    0.00 15399.0 15384.1   14.91
   15 101    25       0   31848  264308       0  264308  263484   824.3    0.00  1080.6 15399.0    0.00 15399.0 15384.1   14.94
   15 102    26       0   31848  264303       0  264303  263483   819.8    0.00  1080.6 15399.0    0.00 15399.0 15384.0   15.01
   15 103    27       0   31848  264294       0  264294  263481   813.2    0.00  1080.6 15398.9    0.00 15398.9 15383.8   15.10
   15 104    28       0   31848  264284       0  264284  263479   805.7    0.00  1080.6 15398.9    0.00 15398.9 15383.6   15.21
   15 105    29       0   31848  264274       0  264274  263476   798.1    0.00  1080.6 15398.8    0.00 15398.8 15383.4   15.31
   15 106    30       0   31847  264264       0  264264  263474   790.3    0.00  1080.6 15398.7    0.00 15398.7 15383.2   15.42
   15 107    31       0   31781  264253       0  264253  263471   782.0    0.00  1078.4 15398.5    0.01 15398.5 15383.0   15.52
   15 108    32       0   31781  264241       1  264240  263468   772.2    0.00  1078.4 15398.4    0.03 15398.4 15382.8   15.62
   15 109    33       0   31781  264230       1  264229  263465   763.5    0.00  1078.4 15398.3    0.04 15398.3 15382.6   15.71
   15 110    34       0   31781  264221       1  264220  263464   756.3    0.00  1078.4 15398.3    0.04 15398.2 15382.4   15.78
   15 111    35       0   31781  264214       1  264213  263462   750.9    0.00  1078.4 15398.2    0.04 15398.1 15382.3   15.82
   15 112    36       0   31781  264209       1  264208  263461   747.0    0.00  1078.4 15398.1    0.04 15398.1 15382.2   15.85
   15 113    37       0   31781  264204       1  264203  263459   743.2    0.00  1078.4 15398.0    0.04 15398.0 15382.1   15.88
   15 114    38       0   31781  264199       1  264197  263458   739.5    0.00  1078.4 15398.0    0.04 15397.9 15382.0   15.91
   15 115    39       0   31778  264193       1  264192  263456   735.4    0.00  1078.3 15397.9    0.04 15397.8 15381.9   15.94
   15 116    40       0   31775  264186       1  264185  263455   730.8    0.00  1078.2 15397.8    0.04 15397.7 15381.8   15.98
   15 117    41       0   31764  264179       1  264178  263452   725.3    0.00  1077.8 15397.7    0.04 15397.6 15381.6   16.02
   15 118    42       0   31752  264170       1  264168  263450   718.6    0.00  1077.5 15397.5    0.04 15397.5 15381.4   16.06
   15 119    43       0   31752  264160       1  264158  263447   711.2    0.00  1077.5 15397.4    0.04 15397.3 15381.2   16.10
   15 120    44       0   31751  264150       1  264149  263445   704.3    0.00  1077.4 15397.2    0.04 15397.2 15381.1   16.13
   15 121    45       0   31670  264141       1  264140  263442   697.6    0.00  1074.8 15397.1    0.04 15397.0 15380.9   16.16
   15 122    46       0   31670  264135       1  264133  263440   693.1    0.00  1074.8 15397.0    0.04 15396.9 15380.7   16.18
   15 123    47       0   31670  264129       1  264128  263439   689.2    0.00  1074.8 15396.9    0.04 15396.8 15380.6   16.20
   15 124    48       0   31670  264122       1  264121  263437   684.6    0.00  1074.8 15396.7    0.04 15396.7 15380.5   16.21
   15 125    49       0   31670  264112       1  264111  263434   677.4    0.00  1074.8 15396.5    0.04 15396.5 15380.3   16.23
   15 126    50       0   31670  264100       1  264099  263430   668.4    0.00  1074.8 15396.3    0.04 15396.3 15380.0   16.25
   15 127    51       0   31669  264088       2  264086  263426   660.2    0.00  1074.8 15396.1    0.07 15396.0 15379.7   16.27
   15 128    52       0   31669  264075       3  264072  263422   650.6    0.00  1074.8 15395.8    0.10 15395.7 15379.5   16.28
   15 129    53       0   31669  264062       4  264058  263418   640.2    0.00  1074.8 15395.6    0.14 15395.4 15379.2   16.28
   15 130    54       0   31669  264049       5  264044  263413   630.7    0.00  1074.7 15395.3    0.18 15395.2 15378.9   16.27
   15 131    55       0   31669  264038       6  264032  263410   622.5    0.00  1074.7 15395.1    0.21 15394.9 15378.6   16.26
   15 132    56       0   31668  264027       7  264020  263406   614.5    0.00  1074.7 15394.9    0.25 15394.6 15378.4   16.24
   15 133    57       0   31668  264016       8  264008  263402   606.2    0.00  1074.7 15394.6    0.29 15394.3 15378.1   16.22
   15 134    58       0   31668  264002       8  263994  263397   597.1    0.00  1074.7 15394.3    0.30 15394.0 15377.8   16.19
   15 135    59       0   31667  263990      10  263980  263392   587.8    0.00  1074.7 15394.0    0.34 15393.6 15377.5   16.15
   15 136    60       0   31667  263977      10  263967  263388   578.9    0.00  1074.7 15393.7    0.37 15393.3 15377.2   16.11
   15 137    61       0   31667  263965      11  263954  263383   570.9    0.00  1074.7 15393.4    0.41 15393.0 15376.9   16.06
   15 138    62       0   31667  263955      12  263943  263379   563.7    0.00  1074.6 15393.1    0.44 15392.6 15376.6   16.02
   15 139    63       0   31666  263946      14  263932  263375   557.4    0.00  1074.6 15392.8    0.49 15392.3 15376.4   15.98
   15 140    64       0   31666  263936      15  263922  263371   550.8    0.00  1074.6 15392.6    0.52 15392.0 15376.1   15.93
   15 141    65       0   31666  263927      15  263912  263367   545.2    0.00  1074.6 15392.3    0.53 15391.8 15375.9   15.89
   15 142    66       0   31665  263918      15  263903  263363   539.7    0.00  1074.6 15392.0    0.53 15391.5 15375.6   15.84
   15 143    67       0   31665  263910      15  263895  263360   534.4    0.00  1074.6 15391.8    0.54 15391.2 15375.4   15.80
   15 144    68       0   31665  263903      15  263887  263358   529.8    0.00  1074.6 15391.6    0.54 15391.0 15375.3   15.76
   15 145    69       0   31665  263896      16  263881  263355   525.4    0.00  1074.6 15391.4    0.55 15390.8 15375.1   15.72
   15 146    70       0   31665  263888      16  263872  263352   520.1    0.00  1074.6 15391.1    0.56 15390.6 15374.9   15.66
   15 147    71       0   31664  263879      16  263863  263349   514.7    0.00  1074.6 15390.9    0.56 15390.3 15374.7   15.61
   15 148    72       0   31664  263871      16  263855  263345   509.7    0.00  1074.5 15390.6    0.57 15390.1 15374.5   15.56
   15 149    73       0   31664  263863      16  263847  263342   505.1    0.00  1074.5 15390.4    0.58 15389.8 15374.3   15.51
   15 150    74       0   31663  263856      18  263838  263338   500.4    0.00  1074.5 15390.1    0.63 15389.5 15374.0   15.46
   15 151    75       0   31663  263849      19  263830  263334   495.9    0.00  1074.5 15389.9    0.68 15389.2 15373.8   15.41
   15 152    76       0   31663  263842      21  263821  263330   491.4    0.00  1074.5 15389.6    0.74 15388.9 15373.6   15.35
   15 153    77       0   31662  263834      23  263811  263325   486.3    0.00  1074.5 15389.3    0.79 15388.5 15373.2   15.29
   15 154    78       0   31662  263825      25  263800  263319   481.0    0.00  1074.5 15389.0    0.86 15388.1 15372.9   15.23
   15 155    79       0   31661  263815      26  263789  263313   475.9    0.00  1074.5 15388.6    0.92 15387.7 15372.5   15.16
   15 156    80       0   31661  263806      28  263777  263306   470.9    0.00  1074.4 15388.2    0.99 15387.2 15372.1   15.10
   15 157    81       0   31661  263796      31  263765  263299   466.0    0.00  1074.4 15387.8    1.06 15386.7 15371.7   15.03
   15 158    82       0   31660  263785      33  263752  263292   460.2    0.00  1074.4 15387.3    1.13 15386.2 15371.2   14.95
   15 159    83       0   31659  263775      35  263740  263285   454.9    0.00  1074.4 15386.9    1.20 15385.7 15370.8   14.88
   15 160    84       0   31659  263760      35  263725  263278   446.7    0.00  1074.4 15386.3    1.20 15385.1 15370.3   14.75
   15 161    85       0   31658  263746      35  263711  263272   438.9    0.00  1074.3 15385.8    1.20 15384.6 15369.9   14.63
   15 162    86       0   31658  263733      35  263698  263266   431.9    0.00  1074.3 15385.3    1.20 15384.1 15369.6   14.51
   15 163    87       0   31657  263722      35  263687  263261   425.8    0.00  1074.3 15384.9    1.20 15383.7 15369.3   14.41
   15 164    88       0   31657  263711      35  263676  263255   420.6    0.00  1074.3 15384.5    1.20 15383.2 15368.9   14.32
   15 165    89       0   31656  263699      35  263664  263250   414.5    0.00  1074.3 15384.0    1.20 15382.8 15368.6   14.21
   15 166    90       0   31655  263686      35  263651  263243   408.1    0.00  1074.2 15383.5    1.20 15382.3 15368.2   14.09
   15 167    91       0   31655  263672      35  263637  263235   401.6    0.00  1074.2 15382.9    1.20 15381.7 15367.7   13.97
   15 168    92       0   31654  263658      35  263623  263229   394.6    0.00  1074.2 15382.4    1.20 15381.2 15367.3   13.83
   15 169    93       0   31653  263645      35  263610  263222   388.0    0.00  1074.2 15381.9    1.20 15380.7 15367.0   13.70
   15 170    94       0   31653  263634      35  263599  263216   382.8    0.00  1074.2 15381.4    1.20 15380.2 15366.6   13.59
   15 171    95       0   31652  263624      35  263589  263211   378.0    0.00  1074.2 15381.0    1.20 15379.8 15366.3   13.49
   15 172    96       0   31652  263615      35  263580  263207   373.4    0.00  1074.1 15380.6    1.20 15379.4 15366.0   13.40
   15 173    97       0   31652  263606      35  263571  263202   369.1    0.00  1074.1 15380.3    1.20 15379.1 15365.8   13.30
   15 174    98       0   31651  263597      35  263562  263197   365.1    0.00  1074.1 15379.9    1.20 15378.7 15365.5   13.22
   15 175    99       0   31651  263589      35  263554  263193   361.0    0.00  1074.1 15379.5    1.20 15378.3 15365.2   13.13
   15 176   100       0   31650  263579      35  263544  263188   356.7    0.00  1074.1 15379.2    1.20 15378.0 15364.9   13.03
   15 177   101       0   31650  263570      35  263535  263183   352.5    0.00  1074.1 15378.8    1.20 15377.6 15364.6   12.93
   15 178   102       0   31649  263560      35  263525  263177   348.4    0.00  1074.0 15378.3    1.20 15377.1 15364.3   12.84
   15 179   103       0   31649  263551      35  263516  263171   344.4    0.00  1074.0 15377.9    1.20 15376.7 15364.0   12.74
   15 180   104       0   31648  263540      35  263505  263165   340.3    0.00  1074.0 15377.4    1.20 15376.2 15363.6   12.65
   15 181   105       0   31647  263529      35  263494  263158   336.3    0.00  1074.0 15377.0    1.20 15375.8 15363.2   12.55
   15 182   106       0   31646  263518      35  263483  263151   332.3    0.00  1074.0 15376.4    1.20 15375.2 15362.8   12.45
   15 183   107       0   31646  263506      35  263471  263143   328.4    0.00  1073.9 15375.9    1.20 15374.7 15362.3   12.36
   15 184   108       0   31645  263495      35  263460  263135   324.6    0.00  1073.9 15375.3    1.20 15374.1 15361.8   12.26
   15 185   109       0   31644  263483      35  263448  263127   321.1    0.00  1073.9 15374.7    1.20 15373.5 15361.3   12.17
   15 186   110       0   31643  263470      35  263435  263118   317.6    0.00  1073.9 15374.1    1.20 15372.9 15360.8   12.09
   15 187   111       0   31643  263458      35  263423  263109   314.4    0.00  1073.8 15373.5    1.20 15372.3 15360.3   12.00
   15 188   112       0   31642  263446      35  263411  263100   311.1    0.00  1073.8 15372.8    1.20 15371.6 15359.7   11.92
   15 189   113       0   31641  263432      35  263397  263090   307.1    0.00  1073.8 15372.2    1.20 15371.0 15359.2   11.82
   15 190   114       0   31640  263418      35  263383  263081   302.5    0.00  1073.8 15371.5    1.20 15370.3 15358.6   11.69
   15 191   115       0   31640  263406      35  263371  263073   298.5    0.00  1073.7 15370.9    1.20 15369.7 15358.1   11.59
   15 192   116       0   31639  263396      35  263361  263066   295.4    0.00  1073.7 15370.4    1.20 15369.2 15357.7   11.50
   15 193   117       0   31638  263388      35  263353  263060   292.9    0.00  1073.7 15370.0    1.20 15368.8 15357.3   11.43
   15 194   118       0   31638  263380      35  263345  263054   290.9    0.00  1073.7 15369.5    1.20 15368.3 15357.0   11.38
   15 195   119       0   31637  263372      35  263337  263048   288.8    0.00  1073.7 15369.1    1.20 15367.9 15356.6   11.32
   15 196   120       0   31637  263363      35  263329  263042   286.8    0.00  1073.6 15368.7    1.20 15367.5 15356.2   11.26
   15 197   121       0   31636  263355      35  263320  263035   284.8    0.00  1073.6 15368.2    1.20 15367.0 15355.8   11.21
   15 198   122       0   31636  263346      35  263311  263028   282.8    0.00  1073.6 15367.7    1.20 15366.5 15355.4   11.15
   15 199   123       0   31635  263337      35  263302  263021   281.0    0.00  1073.6 15367.2    1.20 15366.0 15354.9   11.10
   15 200   124       0   31634  263328      35  263293  263014   279.2    0.00  1073.6 15366.7    1.20 15365.5 15354.5   11.05
   15 201   125       0   31634  263319      35  263284  263007   277.4    0.00  1073.5 15366.2    1.20 15365.0 15354.0   11.00
   15 202   126       0   31633  263310      35  263275  263000   275.7    0.00  1073.5 15365.7    1.20 15364.5 15353.5   10.95
   15 203   127       0   31633  263302      35  263267  262992   274.1    0.00  1073.5 15365.2    1.20 15364.0 15353.1   10.90
   15 204   128       0   31632  263293      35  263258  262986   272.7    0.00  1073.5 15364.7    1.20 15363.5 15352.6   10.86
   15 205   129       0   31632  263285      35  263250  262979   271.2    0.00  1073.5 15364.2    1.20 15363.0 15352.2   10.82
   15 206   130       0   31631  263277      35  263242  262972   269.8    0.00  1073.5 15363.7    1.20 15362.5 15351.7   10.78
   15 207   131       0   31631  263269      35  263234  262966   268.5    0.00  1073.4 15363.3    1.20 15362.1 15351.3   10.74
   15 208   132       0   31630  263262      35  263227  262960   267.3    0.00  1073.4 15362.9    1.20 15361.7 15351.0   10.70
   15 209   133       0   31630  263255      35  263220  262954   265.9    0.00  1073.4 15362.5    1.20 15361.3 15350.6   10.66
   15 210   134       0   31629  263249      35  263214  262949   264.7    0.00  1073.4 15362.1    1.20 15360.9 15350.3   10.62
   15 211   135       0   31629  263243      35  263208  262945   263.7    0.00  1073.4 15361.8    1.20 15360.6 15350.0   10.59
   15 212   136       0   31628  263238      35  263203  262941   262.9    0.00  1073.4 15361.5    1.20 15360.3 15349.7   10.57
   15 213   137       0   31628  263234      35  263199  262936   262.2    0.00  1073.4 15361.2    1.20 15360.0 15349.4   10.55
   15 214   138       0   31628  263229      35  263194  262932   261.5    0.00  1073.3 15360.9    1.20 15359.7 15349.1   10.53
   15 215   139       0   31628  263224      35  263189  262928   260.9    0.00  1073.3 15360.6    1.20 15359.4 15348.9   10.51
   15 216   140       0   31627  263219      35  263184  262924   260.4    0.00  1073.3 15360.3    1.20 15359.1 15348.6   10.49
   15 217   141       0   31627  263214      35  263179  262919   259.8    0.00  1073.3 15359.9    1.20 15358.7 15348.3   10.47
   15 218   142       0   31627  263208      35  263173  262914   259.3    0.00  1073.3 15359.6    1.20 15358.4 15347.9   10.46
   15 219   143       0   31626  263203      35  263168  262909   258.7    0.00  1073.3 15359.2    1.20 15358.0 15347.6   10.44
   15 220   144       0   31626  263197      35  263162  262903   258.2    0.00  1073.3 15358.8    1.20 15357.6 15347.2   10.42
   15 221   145       0   31625  263190      35  263155  262897   257.4    0.00  1073.3 15358.4    1.20 15357.2 15346.8   10.40

*DSSAT Cropping System Model Ver. 4.8.5.000 -release  OCT 24, 2025 14:14:59

*RUN   4        : 4                         CSCER048 TUDU1501    4
 MODEL          : CSCER048 - Wheat
 EXPERIMENT     : TUDU1501 WH
 DATA PATH      :
 TREATMENT  4   : 4                         CSCER048
  
@YEAR DOY   DAS    OMAC    SCDD    SOCD    SC0D    SCTD   SOMCT    LCTD    ONAC    SNDD    SOND    SN0D    SNTD   SOMNT    LNTD
   15 076     0       0   31671  264376       0  264376  263496   880.0    0.00  1075.0 15399.2    0.00 15399.2 15385.2   14.00
   15 077     1       0   31991  264364       0  264364  263494   870.4    0.00  1085.2 15399.2    0.00 15399.2 15385.1   14.18
   15 078     2       0   31991  264355       0  264355  263493   862.1    0.00  1085.2 15399.2    0.00 15399.2 15384.9   14.33
   15 079     3       0   31991  264347       0  264347  263491   855.5    0.00  1085.2 15399.2    0.00 15399.2 15384.8   14.44
   15 080     4       0   31975  264341       0  264341  263490   850.9    0.00  1084.7 15399.2    0.00 15399.2 15384.7   14.52
   15 081     5       0   31970  264338       0  264338  263490   847.9    0.00  1084.5 15399.2    0.00 15399.2 15384.6   14.57
   15 082     6       0   31970  264337       0  264337  263490   847.0    0.00  1084.5 15399.2    0.00 15399.2 15384.6   14.59
   15 083     7       0   31970  264336       0  264336  263489   846.9    0.00  1084.5 15399.2    0.00 15399.2 15384.6   14.59
   15 084     8       0   31970  264336       0  264336  263489   846.9    0.00  1084.5 15399.2    0.00 15399.2 15384.6   14.59
   15 085     9       0   31966  264335       0  264335  263489   846.2    0.00  1084.4 15399.2    0.00 15399.2 15384.6   14.60
   15 086    10       0   31960  264334       0  264334  263489   845.2    0.00  1084.2 15399.2    0.00 15399.2 15384.5   14.62
   15 087    11       0   31959  264332       0  264332  263489   843.5    0.00  1084.2 15399.1    0.00 15399.1 15384.5   14.64
   15 088    12       0   31954  264329       0  264329  263488   840.8    0.00  1084.0 15399.1    0.00 15399.1 15384.4   14.69
   15 089    13       0   31915  264324       0  264324  263487   837.2    0.00  1082.8 15399.1    0.00 15399.1 15384.4   14.75
   15 090    14       0   31899  264320       0  264320  263486   834.0    0.00  1082.2 15399.1    0.00 15399.1 15384.3   14.79
   15 091    15       0   31883  264316       0  264316  263486   830.5    0.00  1081.7 15399.1    0.00 15399.1 15384.2   14.85
   15 092    16       0   31865  264313       0  264313  263485   828.0    0.00  1081.1 15399.1    0.00 15399.1 15384.2   14.88
   15 093    17       0   31865  264311       0  264311  263485   826.5    0.00  1081.1 15399.0    0.00 15399.0 15384.1   14.91
   15 094    18       0   31849  264311       0  264311  263485   826.4    0.00  1080.6 15399.0    0.00 15399.0 15384.1   14.91
   15 095    19       0   31849  264311       0  264311  263485   826.4    0.00  1080.6 15399.0    0.00 15399.0 15384.1   14.91
   15 096    20       0   31848  264311       0  264311  263485   826.4    0.00  1080.6 15399.0    0.00 15399.0 15384.1   14.91
   15 097    21       0   31848  264311       0  264311  263485   826.4    0.00  1080.6 15399.0    0.00 15399.0 15384.1   14.91
   15 098    22       0   31848  264311       0  264311  263485   826.4    0.00  1080.6 15399.0    0.00 15399.0 15384.1   14.91
   15 099    23       0   31848  264311       0  264311  263485   826.4    0.00  1080.6 15399.0    0.00 15399.0 15384.1   14.91
   15 100    24       0   31848  264311       0  264311  263485   826.4    0.00  1080.6 15399.0    0.00 15399.0 15384.1   14.91
   15 101    25       0   31848  264308       0  264308  263484   824.2    0.00  1080.6 15399.0    0.00 15399.0 15384.1   14.94
   15 102    26       0   31848  264303       0  264303  263483   819.6    0.00  1080.6 15399.0    0.00 15399.0 15384.0   15.01
   15 103    27       0   31848  264294       0  264294  263481   812.8    0.00  1080.6 15398.9    0.00 15398.9 15383.8   15.11
   15 104    28       0   31848  264284       0  264284  263479   805.0    0.00  1080.6 15398.9    0.01 15398.9 15383.6   15.22
   15 105    29       0   31848  264274       1  264274  263477   797.1    0.00  1080.6 15398.8    0.03 15398.8 15383.5   15.32
   15 106    30       0   31848  264264       1  264263  263474   788.9    0.00  1080.6 15398.7    0.04 15398.7 15383.2   15.43
   15 107    31       0   31782  264253       2  264251  263471   780.3    0.00  1078.4 15398.6    0.06 15398.5 15383.0   15.53
   15 108    32       0   31782  264239       2  264237  263468   768.7    0.00  1078.4 15398.5    0.07 15398.4 15382.8   15.65
   15 109    33       0   31782  264227       2  264225  263466   758.4    0.00  1078.4 15398.4    0.07 15398.4 15382.6   15.74
   15 110    34       0   31782  264216       2  264215  263465   749.8    0.00  1078.4 15398.3    0.07 15398.3 15382.5   15.81
   15 111    35       0   31782  264209       2  264207  263463   743.5    0.00  1078.4 15398.3    0.07 15398.2 15382.3   15.86
   15 112    36       0   31782  264203       2  264201  263462   739.0    0.00  1078.4 15398.2    0.07 15398.1 15382.2   15.89
   15 113    37       0   31782  264198       2  264196  263461   734.7    0.00  1078.4 15398.1    0.07 15398.1 15382.2   15.92
   15 114    38       0   31782  264192       2  264190  263460   730.4    0.00  1078.4 15398.1    0.07 15398.0 15382.1   15.95
   15 115    39       0   31779  264186       2  264184  263458   725.9    0.00  1078.3 15398.0    0.07 15397.9 15381.9   15.98
   15 116    40       0   31776  264179       2  264177  263457   720.7    0.00  1078.2 15397.9    0.07 15397.8 15381.8   16.02
   15 117    41       0   31765  264171       2  264169  263455   714.5    0.00  1077.9 15397.8    0.07 15397.7 15381.7   16.05
   15 118    42       0   31754  264161       2  264159  263452   706.8    0.00  1077.5 15397.6    0.07 15397.6 15381.5   16.09
   15 119    43       0   31754  264150       2  264148  263450   698.3    0.00  1077.5 15397.5    0.07 15397.4 15381.3   16.13
   15 120    44       0   31752  264140       2  264138  263448   690.0    0.00  1077.4 15397.4    0.07 15397.3 15381.1   16.16
   15 121    45       0   31672  264130       2  264128  263446   682.3    0.00  1074.9 15397.2    0.07 15397.1 15381.0   16.18
   15 122    46       0   31672  264123       2  264121  263444   677.1    0.00  1074.9 15397.1    0.07 15397.0 15380.8   16.19
   15 123    47       0   31672  264117       2  264115  263442   672.4    0.00  1074.9 15397.0    0.07 15396.9 15380.7   16.20
   15 124    48       0   31672  264109       2  264107  263440   667.1    0.00  1074.9 15396.8    0.07 15396.8 15380.6   16.21
   15 125    49       0   31672  264098       2  264096  263438   658.6    0.00  1074.9 15396.7    0.07 15396.6 15380.4   16.23
   15 126    50       0   31672  264084       2  264082  263434   648.1    0.00  1074.9 15396.4    0.07 15396.4 15380.1   16.23
   15 127    51       0   31672  264072       3  264069  263430   638.6    0.00  1074.8 15396.2    0.10 15396.1 15379.9   16.23
   15 128    52       0   31672  264058       4  264054  263427   627.6    0.00  1074.8 15395.9    0.13 15395.8 15379.6   16.22
   15 129    53       0   31672  264043       5  264039  263422   616.1    0.00  1074.8 15395.7    0.17 15395.5 15379.3   16.20
   15 130    54       0   31672  264030       6  264024  263419   605.5    0.00  1074.8 15395.4    0.21 15395.2 15379.0   16.17
   15 131    55       0   31671  264018       7  264012  263415   596.6    0.00  1074.8 15395.2    0.24 15394.9 15378.8   16.14
   15 132    56       0   31671  264007       8  264000  263411   588.2    0.00  1074.8 15394.9    0.28 15394.6 15378.5   16.10
   15 133    57       0   31671  263995       8  263987  263407   579.8    0.00  1074.8 15394.6    0.30 15394.3 15378.2   16.07
   15 134    58       0   31671  263981       8  263973  263403   570.1    0.00  1074.8 15394.3    0.30 15394.0 15377.9   16.01
   15 135    59       0   31670  263968      10  263959  263398   560.6    0.00  1074.8 15394.0    0.35 15393.6 15377.6   15.95
   15 136    60       0   31670  263956      11  263945  263393   552.1    0.00  1074.8 15393.6    0.39 15393.2 15377.3   15.90
   15 137    61       0   31670  263945      12  263933  263389   544.6    0.00  1074.7 15393.3    0.43 15392.9 15377.1   15.84
   15 138    62       0   31669  263936      13  263922  263384   538.0    0.00  1074.7 15393.0    0.48 15392.6 15376.8   15.79
   15 139    63       0   31669  263927      15  263913  263380   532.4    0.00  1074.7 15392.8    0.53 15392.3 15376.5   15.75
   15 140    64       0   31669  263918      16  263902  263376   525.6    0.00  1074.7 15392.5    0.57 15392.0 15376.3   15.68
   15 141    65       0   31669  263909      16  263892  263372   520.0    0.00  1074.7 15392.2    0.58 15391.7 15376.0   15.63
   15 142    66       0   31668  263900      17  263883  263369   514.5    0.00  1074.7 15392.0    0.59 15391.4 15375.8   15.58
   15 143    67       0   31668  263892      17  263875  263366   509.3    0.00  1074.7 15391.7    0.60 15391.1 15375.6   15.52
   15 144    68       0   31668  263885      17  263868  263363   504.7    0.00  1074.7 15391.5    0.61 15390.9 15375.5   15.47
   15 145    69       0   31668  263879      18  263861  263361   500.5    0.00  1074.7 15391.3    0.63 15390.7 15375.3   15.43
   15 146    70       0   31667  263871      18  263853  263358   495.5    0.00  1074.7 15391.1    0.64 15390.5 15375.1   15.37
   15 147    71       0   31667  263863      18  263845  263354   490.6    0.00  1074.7 15390.8    0.65 15390.2 15374.9   15.31
   15 148    72       0   31667  263855      19  263837  263351   486.0    0.00  1074.6 15390.6    0.66 15389.9 15374.7   15.26
   15 149    73       0   31667  263848      19  263829  263347   481.9    0.00  1074.6 15390.3    0.67 15389.7 15374.5   15.21
   15 150    74       0   31666  263841      19  263821  263343   477.9    0.00  1074.6 15390.1    0.69 15389.4 15374.2   15.16
   15 151    75       0   31666  263834      20  263814  263339   474.2    0.00  1074.6 15389.8    0.70 15389.1 15374.0   15.11
   15 152    76       0   31666  263826      20  263806  263335   470.4    0.00  1074.6 15389.5    0.72 15388.8 15373.7   15.07
   15 153    77       0   31665  263817      21  263797  263330   466.3    0.00  1074.6 15389.2    0.74 15388.4 15373.4   15.02
   15 154    78       0   31665  263808      21  263787  263325   462.1    0.00  1074.6 15388.8    0.76 15388.0 15373.1   14.97
   15 155    79       0   31664  263799      22  263777  263319   458.2    0.00  1074.6 15388.4    0.78 15387.6 15372.7   14.92
   15 156    80       0   31664  263790      23  263767  263313   454.3    0.00  1074.5 15388.0    0.80 15387.2 15372.3   14.87
   15 157    81       0   31663  263780      23  263757  263306   450.6    0.00  1074.5 15387.6    0.82 15386.7 15371.9   14.82
   15 158    82       0   31663  263770      24  263746  263300   446.1    0.00  1074.5 15387.1    0.84 15386.3 15371.5   14.76
   15 159    83       0   31663  263760      25  263736  263293   442.2    0.00  1074.5 15386.6    0.86 15385.8 15371.1   14.71
   15 160    84       0   31662  263747      25  263722  263287   435.6    0.00  1074.5 15386.1    0.86 15385.3 15370.7   14.60
   15 161    85       0   31661  263735      25  263710  263281   429.0    0.00  1074.4 15385.6    0.86 15384.8 15370.3   14.49
   15 162    86       0   31661  263724      25  263699  263276   423.1    0.00  1074.4 15385.2    0.86 15384.3 15370.0   14.39
   15 163    87       0   31660  263714      25  263689  263271   418.4    0.00  1074.4 15384.8    0.86 15384.0 15369.6   14.30
   15 164    88       0   31659  263705      25  263681  263266   414.8    0.00  1074.4 15384.4    0.86 15383.6 15369.3   14.24
   15 165    89       0   31659  263696      25  263671  263261   410.2    0.00  1074.4 15384.0    0.86 15383.2 15369.0   14.16
   15 166    90       0   31658  263683      25  263659  263255   404.2    0.00  1074.3 15383.5    0.86 15382.7 15368.6   14.05
   15 167    91       0   31657  263671      25  263646  263248   398.2    0.00  1074.3 15383.0    0.86 15382.2 15368.2   13.93
   15 168    92       0   31657  263657      25  263633  263241   391.7    0.00  1074.3 15382.5    0.86 15381.6 15367.8   13.80
   15 169    93       0   31656  263646      25  263621  263235   385.8    0.00  1074.3 15382.0    0.86 15381.2 15367.5   13.68
   15 170    94       0   31656  263635      25  263611  263230   380.9    0.00  1074.3 15381.6    0.86 15380.7 15367.2   13.58
   15 171    95       0   31655  263626      25  263601  263225   376.5    0.00  1074.2 15381.2    0.86 15380.4 15366.9   13.49
   15 172    96       0   31655  263617      25  263593  263220   372.2    0.00  1074.2 15380.9    0.86 15380.0 15366.6   13.40
   15 173    97       0   31654  263609      25  263584  263216   368.4    0.00  1074.2 15380.5    0.86 15379.7 15366.3   13.32
   15 174    98       0   31654  263601      25  263576  263211   364.7    0.00  1074.2 15380.2    0.86 15379.3 15366.1   13.23
   15 175    99       0   31653  263592      25  263568  263207   360.9    0.00  1074.2 15379.8    0.86 15379.0 15365.8   13.15
   15 176   100       0   31653  263584      25  263559  263202   357.0    0.00  1074.2 15379.5    0.86 15378.6 15365.5   13.06
   15 177   101       0   31652  263575      25  263550  263197   353.3    0.00  1074.2 15379.1    0.86 15378.2 15365.2   12.98
   15 178   102       0   31652  263566      25  263542  263192   349.8    0.00  1074.1 15378.7    0.86 15377.8 15364.9   12.90
   15 179   103       0   31651  263558      25  263533  263186   346.6    0.00  1074.1 15378.3    0.86 15377.4 15364.6   12.82
   15 180   104       0   31650  263549      25  263524  263181   343.4    0.00  1074.1 15377.9    0.86 15377.0 15364.3   12.75
   15 181   105       0   31650  263540      25  263515  263174   340.4    0.00  1074.1 15377.5    0.86 15376.6 15363.9   12.68
   15 182   106       0   31649  263530      25  263506  263168   337.7    0.00  1074.1 15377.0    0.86 15376.1 15363.5   12.62
   15 183   107       0   31649  263521      25  263497  263161   335.3    0.00  1074.0 15376.5    0.86 15375.7 15363.1   12.57
   15 184   108       0   31648  263512      25  263488  263155   333.1    0.00  1074.0 15376.1    0.86 15375.2 15362.7   12.51
   15 185   109       0   31648  263504      25  263479  263148   331.0    0.00  1074.0 15375.6    0.86 15374.7 15362.3   12.47
   15 186   110       0   31647  263495      25  263470  263141   329.2    0.00  1074.0 15375.1    0.86 15374.3 15361.8   12.43
   15 187   111       0   31647  263487      25  263462  263134   327.5    0.00  1074.0 15374.7    0.86 15373.8 15361.4   12.39
   15 188   112       0   31646  263478      25  263453  263128   325.8    0.00  1074.0 15374.2    0.86 15373.3 15361.0   12.35
   15 189   113       0   31645  263468      25  263444  263120   323.4    0.00  1073.9 15373.6    0.86 15372.8 15360.5   12.29
   15 190   114       0   31645  263458      25  263433  263113   320.1    0.00  1073.9 15373.1    0.86 15372.3 15360.0   12.21
   15 191   115       0   31644  263450      25  263425  263107   317.7    0.00  1073.9 15372.7    0.86 15371.8 15359.7   12.15
   15 192   116       0   31644  263443      25  263419  263102   316.3    0.00  1073.9 15372.3    0.86 15371.4 15359.3   12.11
   15 193   117       0   31643  263437      25  263413  263097   315.3    0.00  1073.9 15372.0    0.86 15371.1 15359.0   12.09
   15 194   118       0   31643  263432      25  263408  263093   314.5    0.00  1073.8 15371.7    0.86 15370.8 15358.7   12.07
   15 195   119       0   31642  263427      25  263402  263089   313.6    0.00  1073.8 15371.3    0.86 15370.5 15358.4   12.04
   15 196   120       0   31642  263422      25  263397  263084   312.7    0.00  1073.8 15371.0    0.86 15370.1 15358.1   12.02
   15 197   121       0   31642  263416      25  263391  263079   311.9    0.00  1073.8 15370.7    0.86 15369.8 15357.8   12.00
   15 198   122       0   31641  263410      25  263385  263074   311.1    0.00  1073.8 15370.3    0.86 15369.4 15357.4   11.99
   15 199   123       0   31641  263404      25  263379  263069   310.5    0.00  1073.8 15369.9    0.86 15369.1 15357.1   11.97
   15 200   124       0   31640  263398      25  263373  263063   309.8    0.00  1073.8 15369.5    0.86 15368.7 15356.7   11.95
   15 201   125       0   31640  263392      25  263367  263058   309.0    0.00  1073.8 15369.1    0.86 15368.3 15356.3   11.94
   15 202   126       0   31640  263386      25  263361  263052   308.4    0.00  1073.7 15368.7    0.86 15367.9 15356.0   11.92
   15 203   127       0   31639  263379      25  263355  263047   307.9    0.00  1073.7 15368.4    0.86 15367.5 15355.6   11.91
   15 204   128       0   31639  263374      25  263349  263041   307.5    0.00  1073.7 15368.0    0.86 15367.1 15355.2   11.90
   15 205   129       0   31638  263367      25  263343  263036   306.8    0.00  1073.7 15367.6    0.86 15366.7 15354.8   11.88
   15 206   130       0   31638  263361      25  263337  263030   306.2    0.00  1073.7 15367.2    0.86 15366.3 15354.5   11.87
   15 207   131       0   31638  263356      25  263331  263025   305.7    0.00  1073.7 15366.8    0.86 15365.9 15354.1   11.85
   15 208   132       0   31637  263350      25  263326  263020   305.1    0.00  1073.7 15366.5    0.86 15365.6 15353.8   11.84
   15 209   133       0   31637  263345      25  263320  263016   304.2    0.00  1073.6 15366.1    0.86 15365.3 15353.5   11.81
   15 210   134       0   31636  263340      25  263315  263012   303.6    0.00  1073.6 15365.8    0.86 15365.0 15353.2   11.79
   15 211   135       0   31636  263335      25  263311  263008   303.0    0.00  1073.6 15365.5    0.86 15364.7 15352.9   11.78
   15 212   136       0   31636  263332      25  263307  263004   302.6    0.00  1073.6 15365.3    0.86 15364.4 15352.7   11.77
   15 213   137       0   31636  263328      25  263303  263001   302.2    0.00  1073.6 15365.0    0.86 15364.2 15352.4   11.76
   15 214   138       0   31635  263324      25  263299  262997   302.0    0.00  1073.6 15364.8    0.86 15363.9 15352.2   11.75
   15 215   139       0   31635  263320      25  263295  262994   301.8    0.00  1073.6 15364.5    0.86 15363.7 15351.9   11.75
   15 216   140       0   31635  263316      25  263292  262990   301.6    0.00  1073.6 15364.2    0.86 15363.4 15351.6   11.74
   15 217   141       0   31634  263312      25  263287  262986   301.5    0.00  1073.6 15364.0    0.86 15363.1 15351.4   11.74
   15 218   142       0   31634  263307      25  263283  262981   301.3    0.00  1073.5 15363.6    0.86 15362.8 15351.0   11.73
   15 219   143       0   31634  263303      25  263278  262977   301.2    0.00  1073.5 15363.3    0.86 15362.5 15350.7   11.73
   15 220   144       0   31633  263298      25  263273  262972   301.2    0.00  1073.5 15363.0    0.86 15362.1 15350.4   11.73
   15 221   145       0   31633  263292      25  263267  262967   300.8    0.00  1073.5 15362.6    0.86 15361.7 15350.0   11.72

*DSSAT Cropping System Model Ver. 4.8.5.000 -release  OCT 24, 2025 14:14:59

*RUN   5        : 5                         CSCER048 TUDU1501    5
 MODEL          : CSCER048 - Wheat
 EXPERIMENT     : TUDU1501 WH
 DATA PATH      :
 TREATMENT  5   : 5                         CSCER048
  
@YEAR DOY   DAS    OMAC    SCDD    SOCD    SC0D    SCTD   SOMCT    LCTD    ONAC    SNDD    SOND    SN0D    SNTD   SOMNT    LNTD
   15 076     0       0   31671  264376       0  264376  263496   880.0    0.00  1075.0 15399.2    0.00 15399.2 15385.2   14.00
   15 077     1       0   31991  264364       0  264364  263494   870.4    0.00  1085.2 15399.2    0.00 15399.2 15385.1   14.18
   15 078     2       0   31991  264355       0  264355  263493   862.1    0.00  1085.2 15399.2    0.00 15399.2 15384.9   14.33
   15 079     3       0   31991  264347       0  264347  263491   855.5    0.00  1085.2 15399.2    0.00 15399.2 15384.8   14.44
   15 080     4       0   31975  264341       0  264341  263490   850.9    0.00  1084.7 15399.2    0.00 15399.2 15384.7   14.52
   15 081     5       0   31970  264338       0  264338  263490   847.9    0.00  1084.5 15399.2    0.00 15399.2 15384.6   14.57
   15 082     6       0   31970  264337       0  264337  263490   847.0    0.00  1084.5 15399.2    0.00 15399.2 15384.6   14.59
   15 083     7       0   31970  264336       0  264336  263489   846.9    0.00  1084.5 15399.2    0.00 15399.2 15384.6   14.59
   15 084     8       0   31970  264336       0  264336  263489   846.9    0.00  1084.5 15399.2    0.00 15399.2 15384.6   14.59
   15 085     9       0   31966  264335       0  264335  263489   846.2    0.00  1084.4 15399.2    0.00 15399.2 15384.6   14.60
   15 086    10       0   31960  264334       0  264334  263489   845.2    0.00  1084.2 15399.2    0.00 15399.2 15384.5   14.62
   15 087    11       0   31959  264332       0  264332  263489   843.5    0.00  1084.2 15399.1    0.00 15399.1 15384.5   14.64
   15 088    12       0   31954  264329       0  264329  263488   840.8    0.00  1084.0 15399.1    0.00 15399.1 15384.4   14.69
   15 089    13       0   31915  264324       0  264324  263487   837.2    0.00  1082.8 15399.1    0.00 15399.1 15384.4   14.75
   15 090    14       0   31899  264320       0  264320  263486   834.0    0.00  1082.2 15399.1    0.00 15399.1 15384.3   14.79
   15 091    15       0   31883  264316       0  264316  263486   830.5    0.00  1081.7 15399.1    0.00 15399.1 15384.2   14.85
   15 092    16       0   31865  264313       0  264313  263485   828.0    0.00  1081.1 15399.1    0.00 15399.1 15384.2   14.88
   15 093    17       0   31865  264311       0  264311  263485   826.5    0.00  1081.1 15399.0    0.00 15399.0 15384.1   14.91
   15 094    18       0   31849  264311       0  264311  263485   826.4    0.00  1080.6 15399.0    0.00 15399.0 15384.1   14.91
   15 095    19       0   31849  264311       0  264311  263485   826.4    0.00  1080.6 15399.0    0.00 15399.0 15384.1   14.91
   15 096    20       0   31848  264311       0  264311  263485   826.4    0.00  1080.6 15399.0    0.00 15399.0 15384.1   14.91
   15 097    21       0   31848  264311       0  264311  263485   826.4    0.00  1080.6 15399.0    0.00 15399.0 15384.1   14.91
   15 098    22       0   31848  264311       0  264311  263485   826.4    0.00  1080.6 15399.0    0.00 15399.0 15384.1   14.91
   15 099    23       0   31848  264311       0  264311  263485   826.4    0.00  1080.6 15399.0    0.00 15399.0 15384.1   14.91
[...]
   15 215   139       0   31636  263325      25  263300  262995   305.3    0.00  1073.6 15364.6    0.87 15363.7 15351.8   11.84
   15 216   140       0   31636  263321      25  263296  262991   305.1    0.00  1073.6 15364.3    0.87 15363.4 15351.6   11.84
   15 217   141       0   31635  263316      25  263292  262987   304.9    0.00  1073.6 15364.0    0.87 15363.1 15351.3   11.84
   15 218   142       0   31635  263312      25  263287  262982   304.8    0.00  1073.6 15363.7    0.87 15362.8 15351.0   11.83
   15 219   143       0   31635  263307      25  263282  262977   304.7    0.00  1073.6 15363.3    0.87 15362.5 15350.6   11.83
   15 220   144       0   31634  263302      25  263277  262972   304.7    0.00  1073.6 15363.0    0.87 15362.1 15350.3   11.83
   15 221   145       0   31634  263296      25  263271  262967   304.3    0.00  1073.5 15362.6    0.87 15361.7 15349.9   11.82

*DSSAT Cropping System Model Ver. 4.8.5.000 -release  OCT 24, 2025 14:15:01

*RUN  15        : 15                        CSCER048 TUDU1501   15
 MODEL          : CSCER048 - Wheat
 EXPERIMENT     : TUDU1501 WH
 DATA PATH      :
 TREATMENT 15   : 15                        CSCER048
  
@YEAR DOY   DAS    OMAC    SCDD    SOCD    SC0D    SCTD   SOMCT    LCTD    ONAC    SNDD    SOND    SN0D    SNTD   SOMNT    LNTD
   15 076     0       0   31671  264376       0  264376  263496   880.0    0.00  1075.0 15399.2    0.00 15399.2 15385.2   14.00
   15 077     1       0   31991  264364       0  264364  263494   870.4    0.00  1085.2 15399.2    0.00 15399.2 15385.1   14.18
   15 078     2       0   31991  264355       0  264355  263493   862.1    0.00  1085.2 15399.2    0.00 15399.2 15384.9   14.33
   15 079     3       0   31991  264347       0  264347  263491   855.5    0.00  1085.2 15399.2    0.00 15399.2 15384.8   14.44
   15 080     4       0   31975  264341       0  264341  263490   850.9    0.00  1084.7 15399.2    0.00 15399.2 15384.7   14.52
   15 081     5       0   31970  264338       0  264338  263490   847.9    0.00  1084.5 15399.2    0.00 15399.2 15384.6   14.57
   15 082     6       0   31970  264337       0  264337  263490   847.0    0.00  1084.5 15399.2    0.00 15399.2 15384.6   14.59
   15 083     7       0   31970  264336       0  264336  263489   846.9    0.00  1084.5 15399.2    0.00 15399.2 15384.6   14.59
   15 084     8       0   31970  264336       0  264336  263489   846.9    0.00  1084.5 15399.2    0.00 15399.2 15384.6   14.59
   15 085     9       0   31966  264335       0  264335  263489   846.2    0.00  1084.4 15399.2    0.00 15399.2 15384.6   14.60
   15 086    10       0   31960  264334       0  264334  263489   845.2    0.00  1084.2 15399.2    0.00 15399.2 15384.5   14.62
   15 087    11       0   31959  264332       0  264332  263489   843.5    0.00  1084.2 15399.1    0.00 15399.1 15384.5   14.64
   15 088    12       0   31954  264329       0  264329  263488   840.8    0.00  1084.0 15399.1    0.00 15399.1 15384.4   14.69
   15 089    13       0   31915  264324       0  264324  263487   837.2    0.00  1082.8 15399.1    0.00 15399.1 15384.4   14.75
   15 090    14       0   31899  264320       0  264320  263486   834.0    0.00  1082.2 15399.1    0.00 15399.1 15384.3   14.79
   15 091    15       0   31883  264316       0  264316  263486   830.5    0.00  1081.7 15399.1    0.00 15399.1 15384.2   14.85
   15 092    16       0   31865  264313       0  264313  263485   828.0    0.00  1081.1 15399.1    0.00 15399.1 15384.2   14.88
   15 093    17       0   31865  264311       0  264311  263485   826.5    0.00  1081.1 15399.0    0.00 15399.0 15384.1   14.91
   15 094    18       0   31849  264311       0  264311  263485   826.4    0.00  1080.6 15399.0    0.00 15399.0 15384.1   14.91
   15 095    19       0   31849  264311       0  264311  263485   826.4    0.00  1080.6 15399.0    0.00 15399.0 15384.1   14.91
   15 096    20       0   31848  264311       0  264311  263485   826.4    0.00  1080.6 15399.0    0.00 15399.0 15384.1   14.91
   15 097    21       0   31848  264311       0  264311  263485   826.4    0.00  1080.6 15399.0    0.00 15399.0 15384.1   14.91
   15 098    22       0   31848  264311       0  264311  263485   826.4    0.00  1080.6 15399.0    0.00 15399.0 15384.1   14.91
   15 099    23       0   31848  264311       0  264311  263485   826.4    0.00  1080.6 15399.0    0.00 15399.0 15384.1   14.91
   15 100    24       0   31848  264311       0  264311  263485   826.4    0.00  1080.6 15399.0    0.00 15399.0 15384.1   14.91
   15 101    25       0   31848  264308       0  264308  263484   824.3    0.00  1080.6 15399.0    0.00 15399.0 15384.1   14.94
   15 102    26       0   31848  264303       0  264303  263483   819.8    0.00  1080.6 15399.0    0.00 15399.0 15384.0   15.01
   15 103    27       0   31848  264294       0  264294  263481   813.2    0.00  1080.6 15398.9    0.00 15398.9 15383.8   15.10
   15 104    28       0   31848  264284       0  264284  263479   805.7    0.00  1080.6 15398.9    0.00 15398.9 15383.6   15.21
   15 105    29       0   31848  264274       0  264274  263476   798.1    0.00  1080.6 15398.8    0.00 15398.8 15383.4   15.31
   15 106    30       0   31847  264264       0  264264  263474   790.3    0.00  1080.6 15398.7    0.00 15398.7 15383.2   15.42
   15 107    31       0   31781  264253       0  264253  263471   782.0    0.00  1078.4 15398.5    0.01 15398.5 15383.0   15.52
   15 108    32       0   31781  264241       1  264240  263468   772.2    0.00  1078.4 15398.4    0.03 15398.4 15382.8   15.62
   15 109    33       0   31781  264230       1  264229  263465   763.5    0.00  1078.4 15398.3    0.04 15398.3 15382.6   15.71
   15 110    34       0   31781  264221       1  264220  263464   756.3    0.00  1078.4 15398.3    0.04 15398.2 15382.4   15.78
   15 111    35       0   31781  264214       1  264213  263462   750.9    0.00  1078.4 15398.2    0.04 15398.1 15382.3   15.82
   15 112    36       0   31781  264209       1  264208  263461   747.0    0.00  1078.4 15398.1    0.04 15398.1 15382.2   15.85
   15 113    37       0   31781  264204       1  264203  263459   743.2    0.00  1078.4 15398.0    0.04 15398.0 15382.1   15.88
   15 114    38       0   31781  264199       1  264197  263458   739.5    0.00  1078.4 15398.0    0.04 15397.9 15382.0   15.91
   15 115    39       0   31778  264193       1  264192  263456   735.4    0.00  1078.3 15397.9    0.04 15397.8 15381.9   15.94
   15 116    40       0   31775  264186       1  264185  263455   730.8    0.00  1078.2 15397.8    0.04 15397.7 15381.8   15.98
   15 117    41       0   31764  264179       1  264178  263452   725.3    0.00  1077.8 15397.7    0.04 15397.6 15381.6   16.02
   15 118    42       0   31752  264170       1  264168  263450   718.6    0.00  1077.5 15397.5    0.04 15397.5 15381.4   16.06
   15 119    43       0   31752  264160       1  264158  263447   711.2    0.00  1077.5 15397.4    0.04 15397.3 15381.2   16.10
   15 120    44       0   31751  264150       1  264149  263445   704.3    0.00  1077.4 15397.2    0.04 15397.2 15381.1   16.13
   15 121    45       0   31670  264141       1  264140  263442   697.6    0.00  1074.8 15397.1    0.04 15397.0 15380.9   16.16
   15 122    46       0   31670  264135       1  264133  263440   693.1    0.00  1074.8 15397.0    0.04 15396.9 15380.7   16.18
   15 123    47       0   31670  264129       1  264128  263439   689.2    0.00  1074.8 15396.9    0.04 15396.8 15380.6   16.20
   15 124    48       0   31670  264122       1  264121  263437   684.6    0.00  1074.8 15396.7    0.04 15396.7 15380.5   16.21
   15 125    49       0   31670  264112       1  264111  263434   677.4    0.00  1074.8 15396.5    0.04 15396.5 15380.3   16.23
   15 126    50       0   31670  264100       1  264099  263430   668.4    0.00  1074.8 15396.3    0.04 15396.3 15380.0   16.25
   15 127    51       0   31669  264088       2  264086  263426   660.2    0.00  1074.8 15396.1    0.07 15396.0 15379.7   16.27
   15 128    52       0   31669  264075       3  264072  263422   650.6    0.00  1074.8 15395.8    0.10 15395.7 15379.5   16.28
   15 129    53       0   31669  264062       4  264058  263418   640.2    0.00  1074.8 15395.6    0.14 15395.4 15379.2   16.28
   15 130    54       0   31669  264049       5  264044  263413   630.7    0.00  1074.7 15395.3    0.18 15395.2 15378.9   16.27
   15 131    55       0   31669  264038       6  264032  263410   622.5    0.00  1074.7 15395.1    0.21 15394.9 15378.6   16.26
   15 132    56       0   31668  264027       7  264020  263406   614.5    0.00  1074.7 15394.9    0.25 15394.6 15378.4   16.24
   15 133    57       0   31668  264016       8  264008  263402   606.2    0.00  1074.7 15394.6    0.29 15394.3 15378.1   16.22
   15 134    58       0   31668  264002       8  263994  263397   597.1    0.00  1074.7 15394.3    0.30 15394.0 15377.8   16.19
   15 135    59       0   31667  263990      10  263980  263392   587.8    0.00  1074.7 15394.0    0.34 15393.6 15377.5   16.15
   15 136    60       0   31667  263977      10  263967  263388   578.9    0.00  1074.7 15393.7    0.37 15393.3 15377.2   16.11
   15 137    61       0   31667  263965      11  263954  263383   570.9    0.00  1074.7 15393.4    0.41 15393.0 15376.9   16.06
   15 138    62       0   31667  263955      12  263943  263379   563.7    0.00  1074.6 15393.1    0.44 15392.6 15376.6   16.02
   15 139    63       0   31666  263946      14  263932  263375   557.4    0.00  1074.6 15392.8    0.49 15392.3 15376.4   15.98
   15 140    64       0   31666  263936      15  263922  263371   550.8    0.00  1074.6 15392.6    0.52 15392.0 15376.1   15.93
   15 141    65       0   31666  263927      15  263912  263367   545.2    0.00  1074.6 15392.3    0.53 15391.8 15375.9   15.89
   15 142    66       0   31665  263918      15  263903  263363   539.7    0.00  1074.6 15392.0    0.53 15391.5 15375.6   15.84
   15 143    67       0   31665  263910      15  263895  263360   534.4    0.00  1074.6 15391.8    0.54 15391.2 15375.4   15.80
   15 144    68       0   31665  263903      15  263887  263358   529.8    0.00  1074.6 15391.6    0.54 15391.0 15375.3   15.76
   15 145    69       0   31665  263896      16  263881  263355   525.4    0.00  1074.6 15391.4    0.55 15390.8 15375.1   15.72
   15 146    70       0   31665  263888      16  263872  263352   520.1    0.00  1074.6 15391.1    0.56 15390.6 15374.9   15.66
   15 147    71       0   31664  263879      16  263863  263349   514.7    0.00  1074.6 15390.9    0.56 15390.3 15374.7   15.61
   15 148    72       0   31664  263871      16  263855  263345   509.7    0.00  1074.5 15390.6    0.57 15390.1 15374.5   15.56
   15 149    73       0   31664  263863      16  263847  263342   505.1    0.00  1074.5 15390.4    0.58 15389.8 15374.3   15.51
   15 150    74       0   31663  263856      18  263838  263338   500.4    0.00  1074.5 15390.1    0.63 15389.5 15374.0   15.46
   15 151    75       0   31663  263849      19  263830  263334   495.9    0.00  1074.5 15389.9    0.68 15389.2 15373.8   15.41
   15 152    76       0   31663  263842      21  263821  263330   491.4    0.00  1074.5 15389.6    0.74 15388.9 15373.6   15.35
   15 153    77       0   31662  263834      23  263811  263325   486.3    0.00  1074.5 15389.3    0.79 15388.5 15373.2   15.29
   15 154    78       0   31662  263825      25  263800  263319   481.0    0.00  1074.5 15389.0    0.86 15388.1 15372.9   15.23
   15 155    79       0   31661  263815      26  263789  263313   475.9    0.00  1074.5 15388.6    0.92 15387.7 15372.5   15.16
   15 156    80       0   31661  263806      28  263777  263306   470.9    0.00  1074.4 15388.2    0.99 15387.2 15372.1   15.10
   15 157    81       0   31661  263796      31  263765  263299   466.0    0.00  1074.4 15387.8    1.06 15386.7 15371.7   15.03
   15 158    82       0   31660  263785      33  263752  263292   460.2    0.00  1074.4 15387.3    1.13 15386.2 15371.2   14.95
   15 159    83       0   31659  263775      35  263740  263285   454.9    0.00  1074.4 15386.9    1.20 15385.7 15370.8   14.88
   15 160    84       0   31659  263760      35  263725  263278   446.7    0.00  1074.4 15386.3    1.20 15385.1 15370.3   14.75
   15 161    85       0   31658  263746      35  263711  263272   438.9    0.00  1074.3 15385.8    1.20 15384.6 15369.9   14.63
   15 162    86       0   31658  263733      35  263698  263266   431.9    0.00  1074.3 15385.3    1.20 15384.1 15369.6   14.51
   15 163    87       0   31657  263722      35  263687  263261   425.8    0.00  1074.3 15384.9    1.20 15383.7 15369.3   14.41
   15 164    88       0   31657  263711      35  263676  263255   420.6    0.00  1074.3 15384.5    1.20 15383.2 15368.9   14.32
   15 165    89       0   31656  263699      35  263664  263250   414.5    0.00  1074.3 15384.0    1.20 15382.8 15368.6   14.21
   15 166    90       0   31655  263686      35  263651  263243   408.1    0.00  1074.2 15383.5    1.20 15382.3 15368.2   14.09
   15 167    91       0   31655  263672      35  263637  263235   401.6    0.00  1074.2 15382.9    1.20 15381.7 15367.7   13.97
   15 168    92       0   31654  263658      35  263623  263229   394.6    0.00  1074.2 15382.4    1.20 15381.2 15367.3   13.83
   15 169    93       0   31653  263645      35  263610  263222   388.0    0.00  1074.2 15381.9    1.20 15380.7 15367.0   13.70
   15 170    94       0   31653  263634      35  263599  263216   382.8    0.00  1074.2 15381.4    1.20 15380.2 15366.6   13.59
   15 171    95       0   31652  263624      35  263589  263211   378.0    0.00  1074.2 15381.0    1.20 15379.8 15366.3   13.49
   15 172    96       0   31652  263615      35  263580  263207   373.4    0.00  1074.1 15380.6    1.20 15379.4 15366.0   13.40
   15 173    97       0   31652  263606      35  263571  263202   369.1    0.00  1074.1 15380.3    1.20 15379.1 15365.8   13.30
   15 174    98       0   31651  263597      35  263562  263197   365.1    0.00  1074.1 15379.9    1.20 15378.7 15365.5   13.22
   15 175    99       0   31651  263589      35  263554  263193   361.0    0.00  1074.1 15379.5    1.20 15378.3 15365.2   13.13
   15 176   100       0   31650  263579      35  263544  263188   356.7    0.00  1074.1 15379.2    1.20 15378.0 15364.9   13.03
   15 177   101       0   31650  263570      35  263535  263183   352.5    0.00  1074.1 15378.8    1.20 15377.6 15364.6   12.93
   15 178   102       0   31649  263560      35  263525  263177   348.4    0.00  1074.0 15378.3    1.20 15377.1 15364.3   12.84
   15 179   103       0   31649  263551      35  263516  263171   344.4    0.00  1074.0 15377.9    1.20 15376.7 15364.0   12.74
   15 180   104       0   31648  263540      35  263505  263165   340.3    0.00  1074.0 15377.4    1.20 15376.2 15363.6   12.65
   15 181   105       0   31647  263529      35  263494  263158   336.3    0.00  1074.0 15377.0    1.20 15375.8 15363.2   12.55
   15 182   106       0   31646  263518      35  263483  263151   332.3    0.00  1074.0 15376.4    1.20 15375.2 15362.8   12.45
   15 183   107       0   31646  263506      35  263471  263143   328.4    0.00  1073.9 15375.9    1.20 15374.7 15362.3   12.36
   15 184   108       0   31645  263495      35  263460  263135   324.6    0.00  1073.9 15375.3    1.20 15374.1 15361.8   12.26
   15 185   109       0   31644  263483      35  263448  263127   321.1    0.00  1073.9 15374.7    1.20 15373.5 15361.3   12.17
   15 186   110       0   31643  263470      35  263435  263118   317.6    0.00  1073.9 15374.1    1.20 15372.9 15360.8   12.09
   15 187   111       0   31643  263458      35  263423  263109   314.4    0.00  1073.8 15373.5    1.20 15372.3 15360.3   12.00
   15 188   112       0   31642  263446      35  263411  263100   311.1    0.00  1073.8 15372.8    1.20 15371.6 15359.7   11.92
   15 189   113       0   31641  263432      35  263397  263090   307.1    0.00  1073.8 15372.2    1.20 15371.0 15359.2   11.82
   15 190   114       0   31640  263418      35  263383  263081   302.5    0.00  1073.8 15371.5    1.20 15370.3 15358.6   11.69
   15 191   115       0   31640  263406      35  263371  263073   298.5    0.00  1073.7 15370.9    1.20 15369.7 15358.1   11.59
   15 192   116       0   31639  263396      35  263361  263066   295.4    0.00  1073.7 15370.4    1.20 15369.2 15357.7   11.50
   15 193   117       0   31638  263388      35  263353  263060   292.9    0.00  1073.7 15370.0    1.20 15368.8 15357.3   11.43
   15 194   118       0   31638  263380      35  263345  263054   290.8    0.00  1073.7 15369.5    1.20 15368.3 15357.0   11.38
   15 195   119       0   31637  263372      35  263337  263048   288.8    0.00  1073.7 15369.1    1.20 15367.9 15356.6   11.32
   15 196   120       0   31637  263363      35  263328  263042   286.7    0.00  1073.6 15368.7    1.20 15367.5 15356.2   11.26
   15 197   121       0   31636  263355      35  263320  263035   284.7    0.00  1073.6 15368.2    1.20 15367.0 15355.8   11.21
   15 198   122       0   31636  263346      35  263311  263028   282.8    0.00  1073.6 15367.7    1.20 15366.5 15355.4   11.15
   15 199   123       0   31635  263337      35  263302  263021   280.9    0.00  1073.6 15367.2    1.20 15366.0 15354.9   11.10
   15 200   124       0   31634  263328      35  263293  263014   279.0    0.00  1073.6 15366.7    1.20 15365.5 15354.5   11.04
   15 201   125       0   31634  263319      35  263284  263007   277.2    0.00  1073.5 15366.2    1.20 15365.0 15354.0   10.99
   15 202   126       0   31633  263310      35  263275  262999   275.5    0.00  1073.5 15365.7    1.20 15364.5 15353.5   10.94
   15 203   127       0   31633  263301      35  263266  262992   273.9    0.00  1073.5 15365.2    1.20 15364.0 15353.1   10.90
   15 204   128       0   31632  263293      35  263258  262985   272.5    0.00  1073.5 15364.7    1.20 15363.5 15352.6   10.85
   15 205   129       0   31632  263284      35  263249  262978   270.9    0.00  1073.5 15364.2    1.20 15363.0 15352.2   10.81
   15 206   130       0   31631  263276      35  263241  262972   269.4    0.00  1073.5 15363.7    1.20 15362.5 15351.7   10.77
   15 207   131       0   31630  263268      35  263233  262965   268.1    0.00  1073.4 15363.2    1.20 15362.0 15351.3   10.73
   15 208   132       0   31630  263261      35  263226  262959   266.9    0.00  1073.4 15362.8    1.20 15361.6 15350.9   10.69
   15 209   133       0   31630  263254      35  263219  262954   265.5    0.00  1073.4 15362.4    1.20 15361.2 15350.6   10.65
   15 210   134       0   31629  263248      35  263213  262949   264.2    0.00  1073.4 15362.1    1.20 15360.9 15350.2   10.61
   15 211   135       0   31629  263242      35  263207  262944   263.1    0.00  1073.4 15361.7    1.20 15360.5 15349.9   10.57
   15 212   136       0   31628  263237      35  263202  262940   262.2    0.00  1073.4 15361.4    1.20 15360.2 15349.7   10.55
   15 213   137       0   31628  263232      35  263197  262935   261.5    0.00  1073.4 15361.1    1.20 15359.9 15349.4   10.52
   15 214   138       0   31628  263227      35  263192  262931   260.8    0.00  1073.3 15360.8    1.20 15359.6 15349.1   10.50
   15 215   139       0   31627  263222      35  263187  262927   260.2    0.00  1073.3 15360.5    1.20 15359.3 15348.8   10.48
   15 216   140       0   31627  263217      35  263182  262923   259.6    0.00  1073.3 15360.2    1.20 15359.0 15348.5   10.47
   15 217   141       0   31627  263212      35  263177  262918   259.0    0.00  1073.3 15359.9    1.20 15358.7 15348.2   10.45
   15 218   142       0   31626  263206      35  263171  262913   258.4    0.00  1073.3 15359.5    1.20 15358.3 15347.9   10.43
   15 219   143       0   31626  263200      35  263165  262908   257.8    0.00  1073.3 15359.1    1.20 15357.9 15347.5   10.41
   15 220   144       0   31626  263194      35  263159  262902   257.2    0.00  1073.3 15358.7    1.20 15357.5 15347.1   10.39
   15 221   145       0   31625  263187      35  263152  262896   256.4    0.00  1073.3 15358.3    1.20 15357.1 15346.7   10.37
