*SOIL ORGANIC N BALANCE

*DSSAT Cropping System Model Ver. 4.8.5.000 -release  OCT 24, 2025 14:14:59

*RUN   1        : 1                         CSCER048 TUDU1501    1
 MODEL          : CSCER048 - Wheat
 EXPERIMENT     : TUDU1501 WH
 DATA PATH      :
 TREATMENT  1   : 1                         CSCER048
  


!                                        INITIAL Year/Doy      FINAL Year/Doy
!                                                  15/077              15/221
!SOIL N BALANCE                                 -----------kg N/ha-----------

!   Soil Humus N                                 15385.22            15349.98
!   Soil Litter N                                   14.00               11.67
!   N in Surface Residue                             0.00                0.85

!   Added to / Removed from Soil:
!   N in Harvest Residues from Previous Crop         0.00
!   N from Organic Applications                      0.00
!   N from senesced plant matter                     1.67
!   N immobilized                                    0.49
!   N mineralized                                                       38.88

!   Total N balance                              15401.38            15401.38
!   Balance                                                             0.000

!===============================================================================

*DSSAT Cropping System Model Ver. 4.8.5.000 -release  OCT 24, 2025 14:14:59

*RUN   2        : 2                         CSCER048 TUDU1501    2
 MODEL          : CSCER048 - Wheat
 EXPERIMENT     : TUDU1501 WH
 DATA PATH      :
 TREATMENT  2   : 2                         CSCER048
  


!                                        INITIAL Year/Doy      FINAL Year/Doy
!                                                  15/077              15/221
!SOIL N BALANCE                                 -----------kg N/ha-----------

!   Soil Humus N                                 15385.22            15350.00
!   Soil Litter N                                   14.00               11.72
!   N in Surface Residue                             0.00                0.86

!   Added to / Removed from Soil:
!   N in Harvest Residues from Previous Crop         0.00
!   N from Organic Applications                      0.00
!   N from senesced plant matter                     1.70
!   N immobilized                                    0.49
!   N mineralized                                                       38.83

!   Total N balance                              15401.41            15401.41
!   Balance                                                             0.001

!===============================================================================

*DSSAT Cropping System Model Ver. 4.8.5.000 -release  OCT 24, 2025 14:14:59

*RUN   3        : 3                         CSCER048 TUDU1501    3
 MODEL          : CSCER048 - Wheat
 EXPERIMENT     : TUDU1501 WH
 DATA PATH      :
 TREATMENT  3   : 3                         CSCER048
  


!                                        INITIAL Year/Doy      FINAL Year/Doy
!                                                  15/077              15/221
!SOIL N BALANCE                                 -----------kg N/ha-----------

!   Soil Humus N                                 15385.22            15346.78
!   Soil Litter N                                   14.00               10.40
!   N in Surface Residue                             0.00                1.20

!   Added to / Removed from Soil:
!   N in Harvest Residues from Previous Crop         0.00
!   N from Organic Applications                      0.00
!   N from senesced plant matter                     1.61
!   N immobilized                                    0.41
!   N mineralized                                                       42.85

!   Total N balance                              15401.24            15401.24
!   Balance                                                             0.002

!===============================================================================

*DSSAT Cropping System Model Ver. 4.8.5.000 -release  OCT 24, 2025 14:14:59

*RUN   4        : 4                         CSCER048 TUDU1501    4
 MODEL          : CSCER048 - Wheat
 EXPERIMENT     : TUDU1501 WH
 DATA PATH      :
 TREATMENT  4   : 4                         CSCER048
  


!                                        INITIAL Year/Doy      FINAL Year/Doy
!                                                  15/077              15/221
!SOIL N BALANCE                                 -----------kg N/ha-----------

!   Soil Humus N                                 15385.22            15350.00
!   Soil Litter N                                   14.00               11.72
!   N in Surface Residue                             0.00                0.86

!   Added to / Removed from Soil:
!   N in Harvest Residues from Previous Crop         0.00
!   N from Organic Applications                      0.00
!   N from senesced plant matter                     1.70
!   N immobilized                                    0.49
!   N mineralized                                                       38.82

!   Total N balance                              15401.41            15401.41
!   Balance                                                             0.000

!===============================================================================

*DSSAT Cropping System Model Ver. 4.8.5.000 -release  OCT 24, 2025 14:14:59

*RUN   5        : 5                         CSCER048 TUDU1501    5
 MODEL          : CSCER048 - Wheat
 EXPERIMENT     : TUDU1501 WH
 DATA PATH      :
 TREATMENT  5   : 5                         CSCER048
  


!                                        INITIAL Year/Doy      FINAL Year/Doy
!                                                  15/077              15/221
!SOIL N BALANCE                                 -----------kg N/ha-----------

!   Soil Humus N                                 15385.22            15349.95
!   Soil Litter N                                   14.00               11.80
!   N in Surface Residue                             0.00                0.86

!   Added to / Removed from Soil:
!   N in Harvest Residues from Previous Crop         0.00
!   N from Organic Applications                      0.00
!   N from senesced plant matter                     1.72
!   N immobilized                                    0.49
!   N mineralized                                                       38.82

!   Total N balance                              15401.42            15401.42
!   Balance                                                            -0.001

!===============================================================================

*DSSAT Cropping System Model Ver. 4.8.5.000 -release  OCT 24, 2025 14:14:59

*RUN   6        : 6                         CSCER048 TUDU1501    6
 MODEL          : CSCER048 - Wheat
 EXPERIMENT     : TUDU1501 WH
 DATA PATH      :
 TREATMENT  6   : 6                         CSCER048
  


!                                        INITIAL Year/Doy      FINAL Year/Doy
!                                                  15/077              15/221
!SOIL N BALANCE                                 -----------kg N/ha-----------

!   Soil Humus N                                 15385.22            15349.99
!   Soil Litter N                                   14.00               11.71
!   N in Surface Residue                             0.00                0.86

!   Added to / Removed from Soil:
!   N in Harvest Residues from Previous Crop         0.00
!   N from Organic Applications                      0.00
!   N from senesced plant matter                     1.69
!   N immobilized                                    0.49
!   N mineralized                                                       38.84

!   Total N balance                              15401.40            15401.40
!   Balance                                                             0.001

!===============================================================================

*DSSAT Cropping System Model Ver. 4.8.5.000 -release  OCT 24, 2025 14:15:00

*RUN   7        : 7                         CSCER048 TUDU1501    7
 MODEL          : CSCER048 - Wheat
 EXPERIMENT     : TUDU1501 WH
 DATA PATH      :
 TREATMENT  7   : 7                         CSCER048
  


!                                        INITIAL Year/Doy      FINAL Year/Doy
!                                                  15/077              15/221
!SOIL N BALANCE                                 -----------kg N/ha-----------

!   Soil Humus N                                 15385.22            15350.07
!   Soil Litter N                                   14.00               11.80
!   N in Surface Residue                             0.00                0.87

!   Added to / Removed from Soil:
!   N in Harvest Residues from Previous Crop         0.00
!   N from Organic Applications                      0.00
!   N from senesced plant matter                     1.73
!   N immobilized                                    0.49
!   N mineralized                                                       38.71

!   Total N balance                              15401.44            15401.44
!   Balance                                                             0.000

!===============================================================================

*DSSAT Cropping System Model Ver. 4.8.5.000 -release  OCT 24, 2025 14:15:00

*RUN   8        : 8                         CSCER048 TUDU1501    8
 MODEL          : CSCER048 - Wheat
 EXPERIMENT     : TUDU1501 WH
 DATA PATH      :
 TREATMENT  8   : 8                         CSCER048
  


!                                        INITIAL Year/Doy      FINAL Year/Doy
!                                                  15/077              15/221
!SOIL N BALANCE                                 -----------kg N/ha-----------

!   Soil Humus N                                 15385.22            15350.00
!   Soil Litter N                                   14.00               11.85
!   N in Surface Residue                             0.00                0.86

!   Added to / Removed from Soil:
!   N in Harvest Residues from Previous Crop         0.00
!   N from Organic Applications                      0.00
!   N from senesced plant matter                     1.72
!   N immobilized                                    0.49
!   N mineralized                                                       38.72

!   Total N balance                              15401.43            15401.43
!   Balance                                                             0.000

!===============================================================================

*DSSAT Cropping System Model Ver. 4.8.5.000 -release  OCT 24, 2025 14:15:00

*RUN   9        : 9                         CSCER048 TUDU1501    9
 MODEL          : CSCER048 - Wheat
 EXPERIMENT     : TUDU1501 WH
 DATA PATH      :
 TREATMENT  9   : 9                         CSCER048
  


!                                        INITIAL Year/Doy      FINAL Year/Doy
!                                                  15/077              15/221
!SOIL N BALANCE                                 -----------kg N/ha-----------

!   Soil Humus N                                 15385.22            15349.97
!   Soil Litter N                                   14.00               11.88
!   N in Surface Residue                             0.00                0.87

!   Added to / Removed from Soil:
!   N in Harvest Residues from Previous Crop         0.00
!   N from Organic Applications                      0.00
!   N from senesced plant matter                     1.74
!   N immobilized                                    0.49
!   N mineralized                                                       38.73

!   Total N balance                              15401.45            15401.45
!   Balance                                                             0.000

!===============================================================================

*DSSAT Cropping System Model Ver. 4.8.5.000 -release  OCT 24, 2025 14:15:00

*RUN  10        : 10                        CSCER048 TUDU1501   10
 MODEL          : CSCER048 - Wheat
 EXPERIMENT     : TUDU1501 WH
 DATA PATH      :
 TREATMENT 10   : 10                        CSCER048
  


!                                        INITIAL Year/Doy      FINAL Year/Doy
!                                                  15/077              15/221
!SOIL N BALANCE                                 -----------kg N/ha-----------

!   Soil Humus N                                 15385.22            15346.79
!   Soil Litter N                                   14.00               10.40
!   N in Surface Residue                             0.00                1.20

!   Added to / Removed from Soil:
!   N in Harvest Residues from Previous Crop         0.00
!   N from Organic Applications                      0.00
!   N from senesced plant matter                     1.61
!   N immobilized                                    0.41
!   N mineralized                                                       42.85

!   Total N balance                              15401.24            15401.23
!   Balance                                                            -0.001

!===============================================================================

*DSSAT Cropping System Model Ver. 4.8.5.000 -release  OCT 24, 2025 14:15:00

*RUN  11        : 11                        CSCER048 TUDU1501   11
 MODEL          : CSCER048 - Wheat
 EXPERIMENT     : TUDU1501 WH
 DATA PATH      :
 TREATMENT 11   : 11                        CSCER048
  


!                                        INITIAL Year/Doy      FINAL Year/Doy
!                                                  15/077              15/221
!SOIL N BALANCE                                 -----------kg N/ha-----------

!   Soil Humus N                                 15385.22            15349.98
!   Soil Litter N                                   14.00               11.88
!   N in Surface Residue                             0.00                0.87

!   Added to / Removed from Soil:
!   N in Harvest Residues from Previous Crop         0.00
!   N from Organic Applications                      0.00
!   N from senesced plant matter                     1.75
!   N immobilized                                    0.49
!   N mineralized                                                       38.73

!   Total N balance                              15401.45            15401.45
!   Balance                                                             0.002

!===============================================================================

*DSSAT Cropping System Model Ver. 4.8.5.000 -release  OCT 24, 2025 14:15:00

*RUN  12        : 12                        CSCER048 TUDU1501   12
 MODEL          : CSCER048 - Wheat
 EXPERIMENT     : TUDU1501 WH
 DATA PATH      :
 TREATMENT 12   : 12                        CSCER048
  


!                                        INITIAL Year/Doy      FINAL Year/Doy
!                                                  15/077              15/221
!SOIL N BALANCE                                 -----------kg N/ha-----------

!   Soil Humus N                                 15385.22            15349.98
!   Soil Litter N                                   14.00               11.88
!   N in Surface Residue                             0.00                0.86

!   Added to / Removed from Soil:
!   N in Harvest Residues from Previous Crop         0.00
!   N from Organic Applications                      0.00
!   N from senesced plant matter                     1.73
!   N immobilized                                    0.49
!   N mineralized                                                       38.72

!   Total N balance                              15401.44            15401.44
!   Balance                                                             0.000

!===============================================================================

*DSSAT Cropping System Model Ver. 4.8.5.000 -release  OCT 24, 2025 14:15:00

*RUN  13        : 13                        CSCER048 TUDU1501   13
 MODEL          : CSCER048 - Wheat
 EXPERIMENT     : TUDU1501 WH
 DATA PATH      :
 TREATMENT 13   : 13                        CSCER048
  


!                                        INITIAL Year/Doy      FINAL Year/Doy
!                                                  15/077              15/221
!SOIL N BALANCE                                 -----------kg N/ha-----------

!   Soil Humus N                                 15385.22            15349.97
!   Soil Litter N                                   14.00               11.84
!   N in Surface Residue                             0.00                0.87

!   Added to / Removed from Soil:
!   N in Harvest Residues from Previous Crop         0.00
!   N from Organic Applications                      0.00
!   N from senesced plant matter                     1.74
!   N immobilized                                    0.49
!   N mineralized                                                       38.77

!   Total N balance                              15401.45            15401.45
!   Balance                                                             0.002

!===============================================================================

*DSSAT Cropping System Model Ver. 4.8.5.000 -release  OCT 24, 2025 14:15:00

*RUN  14        : 14                        CSCER048 TUDU1501   14
 MODEL          : CSCER048 - Wheat
 EXPERIMENT     : TUDU1501 WH
 DATA PATH      :
 TREATMENT 14   : 14                        CSCER048
  


!                                        INITIAL Year/Doy      FINAL Year/Doy
!                                                  15/077              15/221
!SOIL N BALANCE                                 -----------kg N/ha-----------

!   Soil Humus N                                 15385.22            15349.91
!   Soil Litter N                                   14.00               11.82
!   N in Surface Residue                             0.00                0.87

!   Added to / Removed from Soil:
!   N in Harvest Residues from Previous Crop         0.00
!   N from Organic Applications                      0.00
!   N from senesced plant matter                     1.73
!   N immobilized                                    0.49
!   N mineralized                                                       38.85

!   Total N balance                              15401.44            15401.44
!   Balance                                                             0.003

!===============================================================================

*DSSAT Cropping System Model Ver. 4.8.5.000 -release  OCT 24, 2025 14:15:01

*RUN  15        : 15                        CSCER048 TUDU1501   15
 MODEL          : CSCER048 - Wheat
 EXPERIMENT     : TUDU1501 WH
 DATA PATH      :
 TREATMENT 15   : 15                        CSCER048
  


!                                        INITIAL Year/Doy      FINAL Year/Doy
!                                                  15/077              15/221
!SOIL N BALANCE                                 -----------kg N/ha-----------

!   Soil Humus N                                 15385.22            15346.71
!   Soil Litter N                                   14.00               10.37
!   N in Surface Residue                             0.00                1.20

!   Added to / Removed from Soil:
!   N in Harvest Residues from Previous Crop         0.00
!   N from Organic Applications                      0.00
!   N from senesced plant matter                     1.61
!   N immobilized                                    0.41
!   N mineralized                                                       42.95

!   Total N balance                              15401.23            15401.23
!   Balance                                                             0.000
