*WATER BALANCE OUTPUT FILE

*DSSAT Cropping System Model Ver. 4.8.5.000 -release  OCT 24, 2025 14:14:59

*RUN   1        : 1                         CSCER048 TUDU1501    1
 MODEL          : CSCER048 - Wheat
 EXPERIMENT     : TUDU1501 WH
 DATA PATH      :
 TREATMENT  1   : 1                         CSCER048
  

!     WATER BALANCE PARAMETERS
!     ========================                 --mm--

!     Soil H20 (start) on Year/day   15/077    530.20
!     Soil H20 (final) on Year/day   15/221    409.90
!     Effective Irrigation                       0.00
!     Precipitation                            326.70
!     Water added with new mulch                 0.02
!     Net lateral flow                           0.00
!     Drainage                                  37.75
!     Tiledrain flow                             0.00
!     Runoff                                     9.34
!     Mulch evaporation                          0.05
!     Soil Evaporation                         142.76
!     Transpiration                            257.11
!     Total evapotranspiration                 399.86
!     Total potential evapotranspiration       603.55

!     Initial mulch water content                0.00
!     Final mulch water content                  0.03

!     Final Balance                            -0.016


*DSSAT Cropping System Model Ver. 4.8.5.000 -release  OCT 24, 2025 14:14:59

*RUN   2        : 2                         CSCER048 TUDU1501    2
 MODEL          : CSCER048 - Wheat
 EXPERIMENT     : TUDU1501 WH
 DATA PATH      :
 TREATMENT  2   : 2                         CSCER048
  

!     WATER BALANCE PARAMETERS
!     ========================                 --mm--

!     Soil H20 (start) on Year/day   15/077    530.20
!     Soil H20 (final) on Year/day   15/221    410.23
!     Effective Irrigation                       0.00
!     Precipitation                            326.70
!     Water added with new mulch                 0.02
!     Net lateral flow                           0.00
!     Drainage                                  37.52
!     Tiledrain flow                             0.00
!     Runoff                                     9.31
!     Mulch evaporation                          0.05
!     Soil Evaporation                         141.69
!     Transpiration                            258.10
!     Total evapotranspiration                 399.79
!     Total potential evapotranspiration       603.04

!     Initial mulch water content                0.00
!     Final mulch water content                  0.03

!     Final Balance                            -0.017


*DSSAT Cropping System Model Ver. 4.8.5.000 -release  OCT 24, 2025 14:14:59

*RUN   3        : 3                         CSCER048 TUDU1501    3
 MODEL          : CSCER048 - Wheat
 EXPERIMENT     : TUDU1501 WH
 DATA PATH      :
 TREATMENT  3   : 3                         CSCER048
  

!     WATER BALANCE PARAMETERS
!     ========================                 --mm--

!     Soil H20 (start) on Year/day   15/077    530.20
!     Soil H20 (final) on Year/day   15/221    415.06
!     Effective Irrigation                       0.00
!     Precipitation                            326.70
!     Water added with new mulch                 0.02
!     Net lateral flow                           0.00
!     Drainage                                  35.42
!     Tiledrain flow                             0.00
!     Runoff                                    10.42
!     Mulch evaporation                          0.09
!     Soil Evaporation                         189.86
!     Transpiration                            206.04
!     Total evapotranspiration                 395.90
!     Total potential evapotranspiration       624.27

!     Initial mulch water content                0.00
!     Final mulch water content                  0.04

!     Final Balance                            -0.013


*DSSAT Cropping System Model Ver. 4.8.5.000 -release  OCT 24, 2025 14:14:59

*RUN   4        : 4                         CSCER048 TUDU1501    4
 MODEL          : CSCER048 - Wheat
 EXPERIMENT     : TUDU1501 WH
 DATA PATH      :
 TREATMENT  4   : 4                         CSCER048
  

!     WATER BALANCE PARAMETERS
!     ========================                 --mm--

!     Soil H20 (start) on Year/day   15/077    530.20
!     Soil H20 (final) on Year/day   15/221    410.10
!     Effective Irrigation                       0.00
!     Precipitation                            326.70
!     Water added with new mulch                 0.02
!     Net lateral flow                           0.00
!     Drainage                                  37.38
!     Tiledrain flow                             0.00
!     Runoff                                     9.32
!     Mulch evaporation                          0.05
!     Soil Evaporation                         141.92
!     Transpiration                            258.12
!     Total evapotranspiration                 400.04
!     Total potential evapotranspiration       603.10

!     Initial mulch water content                0.00
!     Final mulch water content                  0.03

!     Final Balance                            -0.014


*DSSAT Cropping System Model Ver. 4.8.5.000 -release  OCT 24, 2025 14:14:59

*RUN   5        : 5                         CSCER048 TUDU1501    5
 MODEL          : CSCER048 - Wheat
 EXPERIMENT     : TUDU1501 WH
 DATA PATH      :
 TREATMENT  5   : 5                         CSCER048
  

!     WATER BALANCE PARAMETERS
!     ========================                 --mm--

!     Soil H20 (start) on Year/day   15/077    530.20
!     Soil H20 (final) on Year/day   15/221    412.00
!     Effective Irrigation                       0.00
!     Precipitation                            326.70
!     Water added with new mulch                 0.02
!     Net lateral flow                           0.00
!     Drainage                                  37.52
!     Tiledrain flow                             0.00
!     Runoff                                     9.22
!     Mulch evaporation                          0.05
!     Soil Evaporation                         140.21
!     Transpiration                            257.90
!     Total evapotranspiration                 398.11
!     Total potential evapotranspiration       602.06

!     Initial mulch water content                0.00
!     Final mulch water content                  0.03

!     Final Balance                            -0.010


*DSSAT Cropping System Model Ver. 4.8.5.000 -release  OCT 24, 2025 14:14:59

*RUN   6        : 6                         CSCER048 TUDU1501    6
 MODEL          : CSCER048 - Wheat
 EXPERIMENT     : TUDU1501 WH
 DATA PATH      :
 TREATMENT  6   : 6                         CSCER048
  

!     WATER BALANCE PARAMETERS
!     ========================                 --mm--

!     Soil H20 (start) on Year/day   15/077    530.20
!     Soil H20 (final) on Year/day   15/221    410.26
!     Effective Irrigation                       0.00
!     Precipitation                            326.70
!     Water added with new mulch                 0.02
!     Net lateral flow                           0.00
!     Drainage                                  37.54
!     Tiledrain flow                             0.00
!     Runoff                                     9.32
!     Mulch evaporation                          0.05
!     Soil Evaporation                         142.11
!     Transpiration                            257.62
!     Total evapotranspiration                 399.73
!     Total potential evapotranspiration       603.37

!     Initial mulch water content                0.00
!     Final mulch water content                  0.03

!     Final Balance                            -0.014


*DSSAT Cropping System Model Ver. 4.8.5.000 -release  OCT 24, 2025 14:15:00

*RUN   7        : 7                         CSCER048 TUDU1501    7
 MODEL          : CSCER048 - Wheat
 EXPERIMENT     : TUDU1501 WH
 DATA PATH      :
 TREATMENT  7   : 7                         CSCER048
  

!     WATER BALANCE PARAMETERS
!     ========================                 --mm--

!     Soil H20 (start) on Year/day   15/077    530.20
!     Soil H20 (final) on Year/day   15/221    410.37
!     Effective Irrigation                       0.00
!     Precipitation                            326.70
!     Water added with new mulch                 0.02
!     Net lateral flow                           0.00
!     Drainage                                  37.26
!     Tiledrain flow                             0.00
!     Runoff                                     9.22
!     Mulch evaporation                          0.05
!     Soil Evaporation                         140.24
!     Transpiration                            259.76
!     Total evapotranspiration                 400.00
!     Total potential evapotranspiration       601.96

!     Initial mulch water content                0.00
!     Final mulch water content                  0.03

!     Final Balance                            -0.016


*DSSAT Cropping System Model Ver. 4.8.5.000 -release  OCT 24, 2025 14:15:00

*RUN   8        : 8                         CSCER048 TUDU1501    8
 MODEL          : CSCER048 - Wheat
 EXPERIMENT     : TUDU1501 WH
 DATA PATH      :
 TREATMENT  8   : 8                         CSCER048
  

!     WATER BALANCE PARAMETERS
!     ========================                 --mm--

!     Soil H20 (start) on Year/day   15/077    530.20
!     Soil H20 (final) on Year/day   15/221    411.84
!     Effective Irrigation                       0.00
!     Precipitation                            326.70
!     Water added with new mulch                 0.02
!     Net lateral flow                           0.00
!     Drainage                                  37.52
!     Tiledrain flow                             0.00
!     Runoff                                     9.14
!     Mulch evaporation                          0.05
!     Soil Evaporation                         141.52
!     Transpiration                            256.84
!     Total evapotranspiration                 398.36
!     Total potential evapotranspiration       601.86

!     Initial mulch water content                0.00
!     Final mulch water content                  0.03

!     Final Balance                            -0.017


*DSSAT Cropping System Model Ver. 4.8.5.000 -release  OCT 24, 2025 14:15:00

*RUN   9        : 9                         CSCER048 TUDU1501    9
 MODEL          : CSCER048 - Wheat
 EXPERIMENT     : TUDU1501 WH
 DATA PATH      :
 TREATMENT  9   : 9                         CSCER048
  

!     WATER BALANCE PARAMETERS
!     ========================                 --mm--

!     Soil H20 (start) on Year/day   15/077    530.20
!     Soil H20 (final) on Year/day   15/221    412.63
!     Effective Irrigation                       0.00
!     Precipitation                            326.70
!     Water added with new mulch                 0.02
!     Net lateral flow                           0.00
!     Drainage                                  37.38
!     Tiledrain flow                             0.00
!     Runoff                                     9.10
!     Mulch evaporation                          0.05
!     Soil Evaporation                         140.24
!     Transpiration                            257.51
!     Total evapotranspiration                 397.74
!     Total potential evapotranspiration       601.58

!     Initial mulch water content                0.00
!     Final mulch water content                  0.03

!     Final Balance                            -0.021


*DSSAT Cropping System Model Ver. 4.8.5.000 -release  OCT 24, 2025 14:15:00

*RUN  10        : 10                        CSCER048 TUDU1501   10
 MODEL          : CSCER048 - Wheat
 EXPERIMENT     : TUDU1501 WH
 DATA PATH      :
 TREATMENT 10   : 10                        CSCER048
  

!     WATER BALANCE PARAMETERS
!     ========================                 --mm--

!     Soil H20 (start) on Year/day   15/077    530.20
!     Soil H20 (final) on Year/day   15/221    414.98
!     Effective Irrigation                       0.00
!     Precipitation                            326.70
!     Water added with new mulch                 0.02
!     Net lateral flow                           0.00
!     Drainage                                  35.42
!     Tiledrain flow                             0.00
!     Runoff                                    10.42
!     Mulch evaporation                          0.09
!     Soil Evaporation                         189.85
!     Transpiration                            206.12
!     Total evapotranspiration                 395.97
!     Total potential evapotranspiration       624.21

!     Initial mulch water content                0.00
!     Final mulch water content                  0.04

!     Final Balance                            -0.013


*DSSAT Cropping System Model Ver. 4.8.5.000 -release  OCT 24, 2025 14:15:00

*RUN  11        : 11                        CSCER048 TUDU1501   11
 MODEL          : CSCER048 - Wheat
 EXPERIMENT     : TUDU1501 WH
 DATA PATH      :
 TREATMENT 11   : 11                        CSCER048
  

!     WATER BALANCE PARAMETERS
!     ========================                 --mm--

!     Soil H20 (start) on Year/day   15/077    530.20
!     Soil H20 (final) on Year/day   15/221    412.87
!     Effective Irrigation                       0.00
!     Precipitation                            326.70
!     Water added with new mulch                 0.02
!     Net lateral flow                           0.00
!     Drainage                                  36.02
!     Tiledrain flow                             0.00
!     Runoff                                     9.18
!     Mulch evaporation                          0.05
!     Soil Evaporation                         140.96
!     Transpiration                            257.83
!     Total evapotranspiration                 398.78
!     Total potential evapotranspiration       601.57

!     Initial mulch water content                0.00
!     Final mulch water content                  0.03

!     Final Balance                            -0.015


*DSSAT Cropping System Model Ver. 4.8.5.000 -release  OCT 24, 2025 14:15:00

*RUN  12        : 12                        CSCER048 TUDU1501   12
 MODEL          : CSCER048 - Wheat
 EXPERIMENT     : TUDU1501 WH
 DATA PATH      :
 TREATMENT 12   : 12                        CSCER048
  

!     WATER BALANCE PARAMETERS
!     ========================                 --mm--

!     Soil H20 (start) on Year/day   15/077    530.20
!     Soil H20 (final) on Year/day   15/221    412.30
!     Effective Irrigation                       0.00
!     Precipitation                            326.70
!     Water added with new mulch                 0.02
!     Net lateral flow                           0.00
!     Drainage                                  37.45
!     Tiledrain flow                             0.00
!     Runoff                                     9.10
!     Mulch evaporation                          0.05
!     Soil Evaporation                         141.23
!     Transpiration                            256.78
!     Total evapotranspiration                 398.01
!     Total potential evapotranspiration       601.70

!     Initial mulch water content                0.00
!     Final mulch water content                  0.03

!     Final Balance                            -0.022


*DSSAT Cropping System Model Ver. 4.8.5.000 -release  OCT 24, 2025 14:15:00

*RUN  13        : 13                        CSCER048 TUDU1501   13
 MODEL          : CSCER048 - Wheat
 EXPERIMENT     : TUDU1501 WH
 DATA PATH      :
 TREATMENT 13   : 13                        CSCER048
  

!     WATER BALANCE PARAMETERS
!     ========================                 --mm--

!     Soil H20 (start) on Year/day   15/077    530.20
!     Soil H20 (final) on Year/day   15/221    412.44
!     Effective Irrigation                       0.00
!     Precipitation                            326.70
!     Water added with new mulch                 0.02
!     Net lateral flow                           0.00
!     Drainage                                  37.39
!     Tiledrain flow                             0.00
!     Runoff                                     9.16
!     Mulch evaporation                          0.05
!     Soil Evaporation                         139.67
!     Transpiration                            258.20
!     Total evapotranspiration                 397.86
!     Total potential evapotranspiration       601.71

!     Initial mulch water content                0.00
!     Final mulch water content                  0.03

!     Final Balance                            -0.018


*DSSAT Cropping System Model Ver. 4.8.5.000 -release  OCT 24, 2025 14:15:00

*RUN  14        : 14                        CSCER048 TUDU1501   14
 MODEL          : CSCER048 - Wheat
 EXPERIMENT     : TUDU1501 WH
 DATA PATH      :
 TREATMENT 14   : 14                        CSCER048
  

!     WATER BALANCE PARAMETERS
!     ========================                 --mm--

!     Soil H20 (start) on Year/day   15/077    530.20
!     Soil H20 (final) on Year/day   15/221    412.97
!     Effective Irrigation                       0.00
!     Precipitation                            326.70
!     Water added with new mulch                 0.02
!     Net lateral flow                           0.00
!     Drainage                                  37.26
!     Tiledrain flow                             0.00
!     Runoff                                     9.21
!     Mulch evaporation                          0.05
!     Soil Evaporation                         140.21
!     Transpiration                            257.20
!     Total evapotranspiration                 397.42
!     Total potential evapotranspiration       601.96

!     Initial mulch water content                0.00
!     Final mulch water content                  0.03

!     Final Balance                            -0.018


*DSSAT Cropping System Model Ver. 4.8.5.000 -release  OCT 24, 2025 14:15:01

*RUN  15        : 15                        CSCER048 TUDU1501   15
 MODEL          : CSCER048 - Wheat
 EXPERIMENT     : TUDU1501 WH
 DATA PATH      :
 TREATMENT 15   : 15                        CSCER048
  

!     WATER BALANCE PARAMETERS
!     ========================                 --mm--

!     Soil H20 (start) on Year/day   15/077    530.20
!     Soil H20 (final) on Year/day   15/221    415.93
!     Effective Irrigation                       0.00
!     Precipitation                            326.70
!     Water added with new mulch                 0.02
!     Net lateral flow                           0.00
!     Drainage                                  35.42
!     Tiledrain flow                             0.00
!     Runoff                                    10.42
!     Mulch evaporation                          0.09
!     Soil Evaporation                         190.19
!     Transpiration                            204.83
!     Total evapotranspiration                 395.02
!     Total potential evapotranspiration       624.91

!     Initial mulch water content                0.00
!     Final mulch water content                  0.04

!     Final Balance                            -0.015

