*SOIL-PLANT-ATMOSPHERE MODULE OUTPUT FILE

*DSSAT Cropping System Model Ver. 4.8.5.000 -release  OCT 27, 2025 22:35:44

*RUN   1        : 1                         WHAPS048 TUDU1501    1
 MODEL          : WHAPS048 - Wheat
 EXPERIMENT     : TUDU1501 WH
 DATA PATH      :
 TREATMENT  1   : 1                         WHAPS048
  
!                                                                                                                                                                                        Soil evaporation (mm/d) by soil depth (cm):
!                                                                                                                                                                                        0-5    5-15   15-30   30-45   45-60   60-80  80-100 100-150 150-200
@YEAR DOY   DAS   SRAA  TMAXA  TMINA    REFA    EOAA    EOPA    EOSA    ETAA    EPAA    ESAA    EFAA    EMAA    EOAC    ETAC    EPAC    ESAC    EFAC    EMAC    KCAA    KBSA    KEAA    ES1D    ES2D    ES3D    ES4D    ES5D    ES6D    ES7D    ES8D    ES9D   TRWUD   TWUPD
   15 077     1  16.00  14.00   0.00 -99.000   3.054   0.000   3.054   1.110   0.000   1.110   0.000   0.000    3.05    1.11    0.00    1.11    0.00    0.00 -99.000 -99.000 -99.000   0.913   0.121   0.038   0.015   0.008   0.006   0.003   0.004   0.002   0.000   0.000
   15 078     2  17.00  13.00  -1.00 -99.000   3.153   0.000   3.153   1.127   0.000   1.127   0.000   0.000    6.21    2.24    0.00    2.24    0.00    0.00 -99.000 -99.000 -99.000   0.923   0.126   0.039   0.015   0.008   0.006   0.003   0.004   0.002   0.000   0.000
   15 079     3  17.00  13.00  -2.00 -99.000   3.106   0.000   3.106   1.035   0.000   1.035   0.000   0.000    9.31    3.27    0.00    3.27    0.00    0.00 -99.000 -99.000 -99.000   0.832   0.125   0.039   0.015   0.008   0.006   0.003   0.004   0.002   0.000   0.000
   15 080     4  13.00  14.00  -3.00 -99.000   2.380   0.000   2.380   1.051   0.000   1.051   0.000   0.000   11.69    4.32    0.00    4.32    0.00    0.00 -99.000 -99.000 -99.000   0.849   0.125   0.039   0.015   0.008   0.006   0.003   0.004   0.002   0.000   0.000
   15 081     5   5.00   5.00   2.00 -99.000   0.833   0.000   0.833   0.833   0.000   0.833   0.000   0.000   12.53    5.16    0.00    5.16    0.00    0.00 -99.000 -99.000 -99.000   0.676   0.097   0.031   0.012   0.006   0.004   0.003   0.003   0.002   0.000   0.000
   15 082     6   7.00   6.00   0.00 -99.000   1.156   0.000   1.156   0.994   0.000   0.994   0.000   0.000   13.68    6.15    0.00    6.15    0.00    0.00 -99.000 -99.000 -99.000   0.794   0.123   0.039   0.015   0.008   0.006   0.003   0.004   0.002   0.000   0.000
   15 083     7  15.00  15.00  -2.00 -99.000   2.818   0.000   2.818   0.915   0.000   0.915   0.000   0.000   16.50    7.06    0.00    7.06    0.00    0.00 -99.000 -99.000 -99.000   0.716   0.122   0.039   0.015   0.008   0.006   0.003   0.004   0.002   0.000   0.000
   15 084     8  14.00  15.00   2.00 -99.000   2.734   0.000   2.734   0.844   0.000   0.844   0.000   0.000   19.23    7.91    0.00    7.91    0.00    0.00 -99.000 -99.000 -99.000   0.645   0.122   0.039   0.015   0.008   0.006   0.003   0.004   0.002   0.000   0.000
   15 085     9   3.00   7.00   4.00 -99.000   0.524   0.000   0.524   0.524   0.000   0.524   0.000   0.000   19.76    8.43    0.00    8.43    0.00    0.00 -99.000 -99.000 -99.000   0.391   0.081   0.026   0.010   0.005   0.004   0.002   0.003   0.001   0.000   0.000
   15 086    10  10.00   9.00   3.00 -99.000   1.784   0.000   1.784   0.790   0.000   0.790   0.000   0.000   21.54    9.22    0.00    9.22    0.00    0.00 -99.000 -99.000 -99.000   0.592   0.120   0.039   0.015   0.008   0.006   0.003   0.004   0.002   0.000   0.000
   15 087    11  17.00  11.00   1.00 -99.000   3.072   0.000   3.072   0.779   0.000   0.779   0.000   0.000   24.61   10.00    0.00   10.00    0.00    0.00 -99.000 -99.000 -99.000   0.582   0.120   0.039   0.015   0.008   0.006   0.003   0.004   0.002   0.000   0.000
   15 088    12   6.00  12.00   6.00 -99.000   1.160   0.000   1.160   0.721   0.000   0.721   0.000   0.000   25.77   10.72    0.00   10.72    0.00    0.00 -99.000 -99.000 -99.000   0.525   0.119   0.039   0.015   0.008   0.006   0.003   0.004   0.002   0.000   0.000
   15 089    13   9.00   9.00   3.00 -99.000   1.601   0.000   1.601   0.969   0.000   0.969   0.000   0.000   27.37   11.69    0.00   11.69    0.00    0.00 -99.000 -99.000 -99.000   0.771   0.121   0.039   0.015   0.008   0.006   0.003   0.004   0.002   0.000   0.000
   15 090    14   8.00  13.00   1.00 -99.000   1.518   0.017   1.501   1.518   0.017   1.501   0.000   0.000   28.89   13.21    0.02   13.19    0.00    0.00 -99.000 -99.000 -99.000   0.295   0.214   0.189   0.138   0.109   0.118   0.099   0.189   0.149   0.002   0.007
   15 091    15  13.00   6.00   0.00 -99.000   2.172   0.027   2.145   2.157   0.013   2.145   0.000   0.000   31.06   15.37    0.03   15.34    0.00    0.00 -99.000 -99.000 -99.000   0.447   0.310   0.267   0.193   0.152   0.165   0.138   0.264   0.209   0.001   0.007
   15 092    16   7.00   6.00   0.00 -99.000   1.172   0.016   1.156   1.161   0.005   1.156   0.000   0.000   32.24   16.53    0.03   16.49    0.00    0.00 -99.000 -99.000 -99.000   0.250   0.169   0.143   0.103   0.081   0.087   0.073   0.140   0.110   0.000   0.007
   15 093    17  20.00   9.00  -1.00 -99.000   3.505   0.050   3.455   3.459   0.003   3.455   0.000   0.000   35.74   19.99    0.04   19.95    0.00    0.00 -99.000 -99.000 -99.000   0.696   0.504   0.436   0.317   0.248   0.267   0.224   0.427   0.338   0.000   0.007
   15 094    18   7.00   5.00   1.00 -99.000   1.158   0.019   1.139   1.155   0.016   1.139   0.000   0.000   36.90   21.14    0.05   21.09    0.00    0.00 -99.000 -99.000 -99.000   0.233   0.165   0.143   0.104   0.081   0.088   0.074   0.140   0.111   0.002   0.007
   15 095    19  13.00   6.00  -2.00 -99.000   2.124   0.037   2.088   2.090   0.003   2.088   0.000   0.000   39.02   23.23    0.06   23.17    0.00    0.00 -99.000 -99.000 -99.000   0.412   0.303   0.264   0.192   0.151   0.163   0.136   0.260   0.206   0.000   0.007
   15 096    20  10.00   6.00  -2.00 -99.000   1.623   0.030   1.593   1.601   0.008   1.593   0.000   0.000   40.65   24.83    0.06   24.77    0.00    0.00 -99.000 -99.000 -99.000   0.297   0.232   0.204   0.149   0.117   0.127   0.106   0.202   0.160   0.001   0.007
   15 097    21  20.00   8.00  -2.00 -99.000   3.358   0.065   3.292   3.299   0.007   3.292   0.000   0.000   44.00   28.13    0.07   28.06    0.00    0.00 -99.000 -99.000 -99.000   0.601   0.479   0.422   0.308   0.244   0.264   0.221   0.421   0.333   0.001   0.007
   15 098    22  19.00  13.00   0.00 -99.000   3.547   0.078   3.469   1.107   0.018   1.089   0.000   0.000   47.55   29.24    0.09   29.15    0.00    0.00 -99.000 -99.000 -99.000   0.891   0.122   0.038   0.015   0.008   0.006   0.003   0.004   0.002   0.002   0.007
   15 099    23  20.00  18.00   2.00 -99.000   4.101   0.105   3.996   1.046   0.044   1.002   0.000   0.000   51.65   30.28    0.13   30.15    0.00    0.00 -99.000 -99.000 -99.000   0.805   0.121   0.038   0.015   0.008   0.006   0.003   0.004   0.002   0.004   0.007
   15 100    24  20.00  21.00   1.00 -99.000   4.223   0.129   4.094   1.015   0.094   0.922   0.000   0.000   55.87   31.30    0.23   31.07    0.00    0.00 -99.000 -99.000 -99.000   0.725   0.120   0.038   0.015   0.008   0.006   0.003   0.004   0.002   0.009   0.007
   15 101    25  13.00  18.00   5.00 -99.000   2.721   0.096   2.625   0.967   0.121   0.846   0.000   0.000   58.60   32.27    0.35   31.92    0.00    0.00 -99.000 -99.000 -99.000   0.651   0.119   0.038   0.015   0.008   0.006   0.003   0.004   0.002   0.012   0.007
   15 102    26  15.00  18.00   5.00 -99.000   3.127   0.127   3.000   0.864   0.088   0.776   0.000   0.000   61.72   33.13    0.44   32.69    0.00    0.00 -99.000 -99.000 -99.000   0.582   0.118   0.038   0.015   0.008   0.006   0.003   0.004   0.002   0.009   0.004
   15 103    27  15.00  18.00   5.00 -99.000   3.116   0.148   2.969   0.827   0.111   0.716   0.000   0.000   64.84   33.96    0.55   33.41    0.00    0.00 -99.000 -99.000 -99.000   0.523   0.117   0.038   0.015   0.008   0.006   0.003   0.004   0.002   0.011   0.002
   15 104    28  20.00  18.00   5.00 -99.000   4.140   0.227   3.913   0.789   0.129   0.660   0.000   0.000   68.98   34.75    0.68   34.07    0.00    0.00 -99.000 -99.000 -99.000   0.468   0.116   0.038   0.015   0.008   0.006   0.003   0.004   0.002   0.013   0.002
   15 105    29  23.00  23.00   5.00 -99.000   5.083   0.331   4.753   0.790   0.179   0.610   0.000   0.000   74.06   35.53    0.85   34.68    0.00    0.00 -99.000 -99.000 -99.000   0.420   0.115   0.038   0.015   0.008   0.006   0.003   0.004   0.002   0.018   0.002
   15 106    30  14.00  21.00   9.00 -99.000   3.109   0.244   2.866   0.953   0.388   0.565   0.000   0.000   77.17   36.49    1.24   35.25    0.00    0.00 -99.000 -99.000 -99.000   0.376   0.114   0.038   0.015   0.008   0.006   0.003   0.004   0.002   0.039   0.002
   15 107    31   8.00  16.00   5.00 -99.000   1.590   0.143   1.447   1.684   0.237   1.447   0.000   0.000   78.76   38.17    1.48   36.69    0.00    0.00 -99.000 -99.000 -99.000   0.235   0.228   0.192   0.138   0.108   0.116   0.097   0.186   0.147   0.024   0.002
   15 108    32  18.00  10.00   0.00 -99.000   3.204   0.317   2.888   3.015   0.127   2.888   0.000   0.000   81.97   41.19    1.61   39.58    0.00    0.00 -99.000 -99.000 -99.000   0.590   0.443   0.363   0.259   0.205   0.218   0.183   0.349   0.276   0.013   0.007
   15 109    33  24.00  12.00   0.00 -99.000   4.367   0.474   3.894   4.011   0.116   3.894   0.000   0.000   86.33   45.20    1.72   43.48    0.00    0.00 -99.000 -99.000 -99.000   0.735   0.580   0.497   0.360   0.284   0.306   0.256   0.490   0.387   0.012   0.007
   15 110    34  24.00  16.00   0.00 -99.000   4.621   0.564   4.057   4.274   0.217   4.057   0.000   0.000   90.95   49.47    1.94   47.53    0.00    0.00 -99.000 -99.000 -99.000   0.725   0.596   0.524   0.380   0.301   0.325   0.273   0.521   0.412   0.022   0.007
   15 111    35  25.00  19.00   1.00 -99.000   5.052   0.725   4.328   1.451   0.425   1.027   0.000   0.000   96.01   50.92    2.36   48.56    0.00    0.00 -99.000 -99.000 -99.000   0.830   0.121   0.038   0.015   0.008   0.006   0.003   0.004   0.002   0.042   0.008
   15 112    36  24.00  19.00   2.00 -99.000   4.856   0.826   4.031   1.622   0.696   0.926   0.000   0.000  100.86   52.54    3.06   49.48    0.00    0.00 -99.000 -99.000 -99.000   0.731   0.119   0.038   0.015   0.008   0.006   0.003   0.004   0.002   0.070   0.008
   15 113    37  15.00  12.00   0.00 -99.000   2.643   0.528   2.116   1.607   0.783   0.824   0.000   0.000  103.50   54.15    3.84   50.31    0.00    0.00 -99.000 -99.000 -99.000   0.632   0.117   0.038   0.015   0.008   0.006   0.003   0.004   0.002   0.078   0.008
   15 114    38  24.00  18.00   0.00 -99.000   4.624   0.987   3.638   1.031   0.298   0.734   0.000   0.000  108.13   55.18    4.14   51.04    0.00    0.00 -99.000 -99.000 -99.000   0.544   0.114   0.038   0.015   0.008   0.006   0.003   0.004   0.002   0.030   0.005
   15 115    39  12.00  19.00   3.00 -99.000   2.400   0.579   1.822   1.655   0.936   0.720   0.000   0.000  110.53   56.84    5.08   51.76    0.00    0.00 -99.000 -99.000 -99.000   0.532   0.113   0.038   0.015   0.008   0.006   0.003   0.004   0.002   0.094   0.004
   15 116    40  19.00  20.00  10.00 -99.000   4.098   1.090   3.010   1.438   0.698   0.741   0.000   0.000  114.63   58.28    5.77   52.50    0.00    0.00 -99.000 -99.000 -99.000   0.557   0.109   0.037   0.015   0.008   0.006   0.003   0.004   0.002   0.070   0.005
   15 117    41  21.00  22.00   6.00 -99.000   4.467   1.347   3.122   1.746   0.811   0.935   0.000   0.000  119.09   60.02    6.59   53.44    0.00    0.00 -99.000 -99.000 -99.000   0.753   0.107   0.037   0.015   0.007   0.006   0.003   0.004   0.002   0.081   0.006
   15 118    42   8.00  12.00   4.00 -99.000   1.448   0.495   0.953   2.465   1.511   0.953   0.000   0.000  120.54   62.49    8.10   54.39    0.00    0.00 -99.000 -99.000 -99.000   0.195   0.127   0.117   0.088   0.070   0.076   0.064   0.122   0.096   0.151   0.011
   15 119    43  22.00  13.00   0.00 -99.000   3.889   1.408   2.484   2.755   0.271   2.484   0.000   0.000  124.43   65.24    8.37   56.87    0.00    0.00 -99.000 -99.000 -99.000   0.499   0.349   0.300   0.227   0.181   0.196   0.165   0.316   0.250   0.027   0.012
   15 120    44  16.00  15.00   5.00 -99.000   3.052   1.150   1.904   2.711   0.807   1.904   0.000   0.000  127.48   67.95    9.18   58.78    0.00    0.00 -99.000 -99.000 -99.000   0.370   0.275   0.229   0.175   0.139   0.151   0.127   0.244   0.193   0.081   0.012
   15 121    45   8.00   9.00   7.00 -99.000   1.410   0.574   0.836   1.556   0.720   0.836   0.000   0.000  128.89   69.51    9.90   59.61    0.00    0.00 -99.000 -99.000 -99.000   0.173   0.132   0.106   0.075   0.058   0.062   0.052   0.099   0.079   0.072   0.013
   15 122    46  12.00  13.00   7.00 -99.000   2.263   0.966   1.298   1.372   0.074   1.298   0.000   0.000  131.15   70.88    9.97   60.91    0.00    0.00 -99.000 -99.000 -99.000   0.268   0.206   0.175   0.120   0.091   0.095   0.078   0.148   0.118   0.007   0.014
   15 123    47   9.00  16.00  10.00 -99.000   1.809   0.825   0.985   1.378   0.393   0.985   0.000   0.000  132.96   72.26   10.36   61.90    0.00    0.00 -99.000 -99.000 -99.000   0.209   0.158   0.130   0.091   0.069   0.072   0.059   0.110   0.087   0.039   0.015
   15 124    48  16.00  20.00  14.00 -99.000   3.511   1.695   1.818   2.271   0.453   1.818   0.000   0.000  136.47   74.53   10.82   63.71    0.00    0.00 -99.000 -99.000 -99.000   0.365   0.279   0.235   0.169   0.131   0.138   0.115   0.216   0.170   0.045   0.015
   15 125    49  12.00  25.00  12.00 -99.000   2.723   1.421   1.303   2.195   0.891   1.303   0.000   0.000  139.20   76.72   11.71   65.02    0.00    0.00 -99.000 -99.000 -99.000   0.262   0.195   0.168   0.121   0.095   0.100   0.083   0.157   0.123   0.089   0.016
   15 126    50  14.00  14.00   8.00 -99.000   2.629   1.456   1.176   3.032   1.857   1.176   0.000   0.000  141.83   79.76   13.56   66.19    0.00    0.00 -99.000 -99.000 -99.000   0.247   0.183   0.155   0.108   0.083   0.087   0.072   0.135   0.106   0.186   0.017
   15 127    51  22.00  18.00   8.00 -99.000   4.366   2.529   1.841   2.461   0.621   1.841   0.000   0.000  146.19   82.22   14.18   68.03    0.00    0.00 -99.000 -99.000 -99.000   0.361   0.283   0.244   0.171   0.132   0.140   0.116   0.220   0.174   0.062   0.018
   15 128    52  23.00  22.00   8.00 -99.000   4.776   2.895   1.884   3.620   1.736   1.884   0.000   0.000  150.97   85.84   15.92   69.92    0.00    0.00 -99.000 -99.000 -99.000   0.350   0.280   0.246   0.176   0.138   0.148   0.124   0.236   0.186   0.174   0.020
   15 129    53  13.00  17.00  10.00 -99.000   2.549   1.617   0.934   3.946   3.012   0.934   0.000   0.000  153.52   89.78   18.93   70.85    0.00    0.00 -99.000 -99.000 -99.000   0.178   0.136   0.120   0.087   0.068   0.073   0.061   0.117   0.092   0.301   0.022
   15 130    54  22.00  19.00   7.00 -99.000   4.304   2.830   1.477   2.456   0.978   1.477   0.000   0.000  157.82   92.24   19.91   72.33    0.00    0.00 -99.000 -99.000 -99.000   0.278   0.211   0.189   0.138   0.109   0.118   0.099   0.188   0.148   0.098   0.025
   15 131    55  23.00  21.00   5.00 -99.000   4.517   3.065   1.457   3.861   2.404   1.457   0.000   0.000  162.34   96.10   22.31   73.79    0.00    0.00 -99.000 -99.000 -99.000   0.264   0.208   0.187   0.137   0.108   0.118   0.099   0.188   0.148   0.240   0.027
   15 132    56  23.00  27.00   8.00 -99.000   4.991   3.484   1.511   4.989   3.478   1.511   0.000   0.000  167.33  101.09   25.79   75.30    0.00    0.00 -99.000 -99.000 -99.000   0.257   0.214   0.194   0.144   0.114   0.125   0.105   0.200   0.158   0.348   0.029
   15 133    57  20.00  22.00  13.00 -99.000   4.226   3.055   1.175   6.471   5.296   1.175   0.000   0.000  171.55  107.56   31.09   76.47    0.00    0.00 -99.000 -99.000 -99.000   0.220   0.164   0.145   0.108   0.086   0.096   0.081   0.154   0.121   0.530   0.031
   15 134    58  18.00  18.00  11.00 -99.000   3.544   2.639   0.908   3.313   2.405   0.908   0.000   0.000  175.10  110.88   33.49   77.38    0.00    0.00 -99.000 -99.000 -99.000   0.177   0.126   0.108   0.081   0.065   0.075   0.063   0.119   0.094   0.241   0.034
   15 135    59   8.00  15.00   7.00 -99.000   1.448   1.102   0.348   1.843   1.495   0.348   0.000   0.000  176.54  112.72   34.99   77.73    0.00    0.00 -99.000 -99.000 -99.000   0.289   0.036   0.011   0.004   0.002   0.002   0.001   0.001   0.001   0.150   0.036
   15 136    60  24.00  19.00   5.00 -99.000   4.503   3.476   1.032   1.784   0.774   1.011   0.000   0.000  181.05  114.50   35.76   78.74    0.00    0.00 -99.000 -99.000 -99.000   0.832   0.109   0.034   0.013   0.007   0.006   0.003   0.004   0.002   0.077   0.039
   15 137    61  17.00  17.00  10.00 -99.000   3.240   2.538   0.706   3.761   3.055   0.706   0.000   0.000  184.29  118.26   38.82   79.45    0.00    0.00 -99.000 -99.000 -99.000   0.576   0.079   0.024   0.010   0.005   0.004   0.003   0.003   0.002   0.306   0.040
   15 138    62  26.00  23.00   7.00 -99.000   5.213   4.183   1.036   2.046   1.143   0.903   0.000   0.000  189.50  120.31   39.96   80.35    0.00    0.00 -99.000 -99.000 -99.000   0.731   0.104   0.033   0.013   0.007   0.006   0.003   0.004   0.002   0.114   0.042
   15 139    63  10.00  18.00   9.00 -99.000   1.901   1.564   0.339   4.186   3.847   0.339   0.000   0.000  191.40  124.50   43.81   80.69    0.00    0.00 -99.000 -99.000 -99.000   0.068   0.049   0.039   0.029   0.023   0.028   0.023   0.045   0.035   0.385   0.043
   15 140    64   8.00  10.00   6.00 -99.000   1.314   1.093   0.223   1.141   0.918   0.223   0.000   0.000  192.72  125.64   44.73   80.91    0.00    0.00 -99.000 -99.000 -99.000   0.052   0.036   0.027   0.018   0.013   0.016   0.014   0.026   0.021   0.092   0.044
   15 141    65  12.00  12.00   7.00 -99.000   2.054   1.719   0.338   0.534   0.197   0.338   0.000   0.000  194.77  126.17   44.92   81.25    0.00    0.00 -99.000 -99.000 -99.000   0.072   0.054   0.045   0.029   0.021   0.025   0.021   0.040   0.031   0.020   0.044
   15 142    66  22.00  15.00   4.00 -99.000   3.815   3.221   0.599   0.978   0.379   0.599   0.000   0.000  198.59  127.15   45.30   81.85    0.00    0.00 -99.000 -99.000 -99.000   0.118   0.091   0.078   0.055   0.041   0.046   0.038   0.073   0.058   0.038   0.044
   15 143    67  15.00  16.00   6.00 -99.000   2.686   2.295   0.394   1.665   1.271   0.394   0.000   0.000  201.27  128.81   46.57   82.24    0.00    0.00 -99.000 -99.000 -99.000   0.080   0.059   0.051   0.036   0.028   0.030   0.025   0.048   0.038   0.127   0.045
   15 144    68  12.00  15.00   8.00 -99.000   2.158   1.857   0.303   1.251   0.948   0.303   0.000   0.000  203.43  130.07   47.52   82.54    0.00    0.00 -99.000 -99.000 -99.000   0.061   0.044   0.039   0.028   0.022   0.023   0.019   0.037   0.029   0.095   0.045
   15 145    69  15.00  19.00   9.00 -99.000   2.877   2.489   0.391   0.953   0.562   0.391   0.000   0.000  206.31  131.02   48.08   82.94    0.00    0.00 -99.000 -99.000 -99.000   0.075   0.057   0.050   0.036   0.029   0.031   0.026   0.049   0.039   0.056   0.046
   15 146    70  13.00  15.00   8.00 -99.000   2.331   2.030   0.304   1.423   1.119   0.304   0.000   0.000  208.64  132.44   49.20   83.24    0.00    0.00 -99.000 -99.000 -99.000   0.056   0.044   0.039   0.029   0.022   0.024   0.020   0.039   0.031   0.112   0.046
   15 147    71  17.00  14.00   4.00 -99.000   2.883   2.523   0.365   0.925   0.560   0.365   0.000   0.000  211.52  133.37   49.76   83.60    0.00    0.00 -99.000 -99.000 -99.000   0.067   0.052   0.047   0.034   0.027   0.029   0.025   0.047   0.037   0.056   0.047
   15 148    72  27.00  20.00   3.00 -99.000   4.950   4.353   0.604   1.356   0.753   0.604   0.000   0.000  216.47  134.72   50.52   84.21    0.00    0.00 -99.000 -99.000 -99.000   0.109   0.086   0.077   0.057   0.045   0.049   0.041   0.078   0.061   0.075   0.047
   15 149    73  21.00  23.00   7.00 -99.000   4.155   3.680   0.480   2.644   2.164   0.480   0.000   0.000  220.63  137.37   52.68   84.69    0.00    0.00 -99.000 -99.000 -99.000   0.085   0.068   0.062   0.045   0.036   0.039   0.033   0.062   0.049   0.216   0.047
   15 150    74  17.00  18.00  11.00 -99.000   3.257   2.900   0.361   2.354   1.993   0.361   0.000   0.000  223.88  139.72   54.67   85.05    0.00    0.00 -99.000 -99.000 -99.000   0.062   0.051   0.046   0.034   0.027   0.030   0.025   0.048   0.038   0.199   0.048
   15 151    75  22.00  21.00   9.00 -99.000   4.307   3.850   0.462   1.156   0.693   0.462   0.000   0.000  228.19  140.88   55.37   85.51    0.00    0.00 -99.000 -99.000 -99.000   0.077   0.065   0.059   0.044   0.035   0.038   0.033   0.062   0.049   0.069   0.049
   15 152    76  21.00  26.00  11.00 -99.000   4.454   3.999   0.460   1.909   1.449   0.460   0.000   0.000  232.64  142.79   56.81   85.97    0.00    0.00 -99.000 -99.000 -99.000   0.076   0.064   0.059   0.044   0.035   0.038   0.033   0.062   0.049   0.145   0.049
   15 153    77  23.00  25.00  13.00 -99.000   4.900   4.385   0.520   2.541   2.021   0.520   0.000   0.000  237.54  145.33   58.84   86.49    0.00    0.00 -99.000 -99.000 -99.000   0.084   0.072   0.067   0.050   0.039   0.044   0.037   0.071   0.056   0.202   0.049
   15 154    78  27.00  28.00  12.00 -99.000   5.916   5.287   0.635   3.015   2.380   0.635   0.000   0.000  243.46  148.34   61.22   87.13    0.00    0.00 -99.000 -99.000 -99.000   0.099   0.088   0.082   0.061   0.048   0.054   0.046   0.088   0.069   0.238   0.050
   15 155    79  28.00  26.00  12.00 -99.000   5.986   5.361   0.632   5.067   4.435   0.632   0.000   0.000  249.45  153.41   65.65   87.76    0.00    0.00 -99.000 -99.000 -99.000   0.502   0.077   0.026   0.010   0.005   0.004   0.003   0.003   0.002   0.444   0.050
   15 156    80  28.00  28.00  15.00 -99.000   6.270   5.641   0.636   5.191   4.555   0.636   0.000   0.000  255.72  158.60   70.21   88.39    0.00    0.00 -99.000 -99.000 -99.000   0.492   0.085   0.029   0.011   0.006   0.005   0.003   0.004   0.002   0.456   0.048
   15 157    81  25.00  30.00  13.00 -99.000   5.636   5.096   0.546   5.366   4.820   0.546   0.000   0.000  261.35  163.97   75.03   88.94    0.00    0.00 -99.000 -99.000 -99.000   0.433   0.065   0.023   0.009   0.005   0.004   0.002   0.003   0.001   0.482   0.043
   15 158    82  24.00  26.00  16.00 -99.000   5.287   4.800   0.492   6.169   5.676   0.492   0.000   0.000  266.64  170.13   80.70   89.43    0.00    0.00 -99.000 -99.000 -99.000   0.402   0.052   0.019   0.007   0.004   0.003   0.002   0.002   0.001   0.568   0.054
   15 159    83   8.00  20.00  12.00 -99.000   1.583   1.431   0.154   3.987   3.833   0.154   0.000   0.000  268.22  174.12   84.54   89.59    0.00    0.00 -99.000 -99.000 -99.000   0.031   0.021   0.017   0.013   0.010   0.013   0.011   0.021   0.017   0.383   0.050
   15 160    84   6.00  13.00  11.00 -99.000   1.073   0.959   0.115   1.309   1.194   0.115   0.000   0.000  269.30  175.43   85.73   89.70    0.00    0.00 -99.000 -99.000 -99.000   0.026   0.017   0.013   0.009   0.007   0.009   0.008   0.015   0.012   0.119   0.057
   15 161    85   9.00  18.00  11.00 -99.000   1.726   1.540   0.188   0.391   0.204   0.188   0.000   0.000  271.02  175.82   85.93   89.89    0.00    0.00 -99.000 -99.000 -99.000   0.039   0.028   0.022   0.015   0.012   0.015   0.013   0.025   0.020   0.020   0.057
   15 162    86  16.00  22.00  14.00 -99.000   3.317   2.955   0.366   1.524   1.158   0.366   0.000   0.000  274.34  177.35   87.09   90.26    0.00    0.00 -99.000 -99.000 -99.000   0.073   0.056   0.043   0.029   0.023   0.029   0.026   0.049   0.039   0.116   0.057
   15 163    87  28.00  28.00  12.00 -99.000   6.145   5.463   0.688   3.023   2.335   0.688   0.000   0.000  280.48  180.37   89.43   90.94    0.00    0.00 -99.000 -99.000 -99.000   0.135   0.104   0.081   0.054   0.043   0.054   0.049   0.094   0.074   0.233   0.057
   15 164    88  20.00  25.00  14.00 -99.000   4.303   3.817   0.490   7.467   6.977   0.490   0.000   0.000  284.79  187.84   96.40   91.43    0.00    0.00 -99.000 -99.000 -99.000   0.108   0.073   0.056   0.037   0.029   0.037   0.034   0.065   0.051   0.698   0.057
   15 165    89  23.00  24.00  15.00 -99.000   4.937   4.371   0.571   4.492   3.921   0.571   0.000   0.000  289.72  192.33  100.32   92.01    0.00    0.00 -99.000 -99.000 -99.000   0.135   0.093   0.068   0.040   0.031   0.040   0.037   0.071   0.056   0.392   0.058
   15 166    90   9.00  16.00  13.00 -99.000   1.714   1.515   0.202   3.713   3.511   0.202   0.000   0.000  291.44  196.04  103.83   92.21    0.00    0.00 -99.000 -99.000 -99.000   0.046   0.035   0.027   0.016   0.010   0.013   0.012   0.023   0.019   0.351   0.059
   15 167    91  18.00  19.00  11.00 -99.000   3.508   3.094   0.418   0.913   0.495   0.418   0.000   0.000  294.95  196.95  104.33   92.62    0.00    0.00 -99.000 -99.000 -99.000   0.085   0.066   0.058   0.038   0.026   0.028   0.026   0.051   0.040   0.050   0.059
   15 168    92  21.00  19.00  10.00 -99.000   4.053   3.570   0.489   2.629   2.140   0.489   0.000   0.000  299.00  199.58  106.47   93.11    0.00    0.00 -99.000 -99.000 -99.000   0.094   0.074   0.065   0.045   0.035   0.036   0.031   0.061   0.048   0.214   0.060
   15 169    93   8.00  17.00   9.00 -99.000   1.488   1.308   0.181   2.769   2.588   0.181   0.000   0.000  300.49  202.35  109.06   93.29    0.00    0.00 -99.000 -99.000 -99.000   0.038   0.028   0.023   0.016   0.013   0.013   0.011   0.022   0.017   0.259   0.060
   15 170    94  15.00  15.00  10.00 -99.000   2.743   2.408   0.338   1.463   1.125   0.338   0.000   0.000  303.23  203.81  110.18   93.63    0.00    0.00 -99.000 -99.000 -99.000   0.070   0.050   0.043   0.031   0.024   0.026   0.021   0.041   0.033   0.112   0.061
   15 171    95  14.00  15.00   9.00 -99.000   2.534   2.221   0.316   1.299   0.984   0.316   0.000   0.000  305.76  205.11  111.17   93.95    0.00    0.00 -99.000 -99.000 -99.000   0.061   0.046   0.040   0.029   0.023   0.025   0.021   0.040   0.031   0.098   0.061
   15 172    96  14.00  17.00   9.00 -99.000   2.606   2.281   0.328   1.424   1.097   0.328   0.000   0.000  308.37  206.54  112.26   94.28    0.00    0.00 -99.000 -99.000 -99.000   0.061   0.047   0.042   0.031   0.024   0.026   0.022   0.042   0.033   0.110   0.061
   15 173    97  14.00  20.00  11.00 -99.000   2.764   2.416   0.352   1.951   1.599   0.352   0.000   0.000  311.14  208.49  113.86   94.63    0.00    0.00 -99.000 -99.000 -99.000   0.074   0.051   0.044   0.032   0.025   0.027   0.022   0.043   0.034   0.160   0.061
   15 174    98  19.00  16.00   9.00 -99.000   3.495   3.049   0.450   2.577   2.126   0.450   0.000   0.000  314.63  211.07  115.99   95.08    0.00    0.00 -99.000 -99.000 -99.000   0.100   0.067   0.056   0.040   0.031   0.033   0.028   0.053   0.042   0.213   0.061
   15 175    99  22.00  19.00   8.00 -99.000   4.179   3.646   0.538   2.071   1.533   0.538   0.000   0.000  318.81  213.14  117.52   95.62    0.00    0.00 -99.000 -99.000 -99.000   0.108   0.079   0.068   0.049   0.039   0.042   0.035   0.067   0.053   0.153   0.062
   15 176   100  22.00  21.00   6.00 -99.000   4.215   3.667   0.553   3.616   3.063   0.553   0.000   0.000  323.02  216.75  120.58   96.17    0.00    0.00 -99.000 -99.000 -99.000   0.105   0.080   0.071   0.051   0.040   0.044   0.037   0.070   0.055   0.306   0.062
   15 177   101  24.00  24.00   8.00 -99.000   4.869   4.222   0.653   4.891   4.238   0.653   0.000   0.000  327.89  221.64  124.82   96.82    0.00    0.00 -99.000 -99.000 -99.000   0.537   0.071   0.023   0.009   0.004   0.003   0.002   0.003   0.001   0.424   0.062
   15 178   102  13.00  22.00  13.00 -99.000   2.682   2.318   0.367   5.813   5.446   0.367   0.000   0.000  330.58  227.46  130.27   97.19    0.00    0.00 -99.000 -99.000 -99.000   0.296   0.043   0.014   0.005   0.003   0.002   0.001   0.002   0.001   0.545   0.062
   15 179   103  24.00  22.00  13.00 -99.000   4.952   4.263   0.694   2.910   2.215   0.694   0.000   0.000  335.53  230.37  132.48   97.88    0.00    0.00 -99.000 -99.000 -99.000   0.550   0.087   0.029   0.011   0.006   0.004   0.003   0.003   0.002   0.222   0.062
   15 180   104  23.00  25.00  12.00 -99.000   4.886   4.188   0.704   3.948   3.244   0.704   0.000   0.000  340.41  234.32  135.73   98.59    0.00    0.00 -99.000 -99.000 -99.000   0.546   0.094   0.031   0.012   0.006   0.005   0.003   0.004   0.002   0.324   0.062
   15 181   105  27.00  29.00  12.00 -99.000   6.019   5.135   0.890   5.421   4.705   0.716   0.000   0.000  346.43  239.74  140.43   99.30    0.00    0.00 -99.000 -99.000 -99.000   0.542   0.103   0.035   0.013   0.007   0.005   0.003   0.004   0.002   0.471   0.054
   15 182   106  28.00  28.00  13.00 -99.000   6.218   5.278   0.946   7.639   7.011   0.628   0.000   0.000  352.65  247.38  147.45   99.93    0.00    0.00 -99.000 -99.000 -99.000   0.461   0.098   0.034   0.013   0.007   0.005   0.003   0.004   0.002   0.701   0.051
   15 183   107  29.00  29.00  14.00 -99.000   6.568   5.544   1.030   6.911   6.365   0.546   0.000   0.000  359.22  254.29  153.81  100.48    0.00    0.00 -99.000 -99.000 -99.000   0.388   0.091   0.032   0.013   0.006   0.005   0.003   0.004   0.002   0.637   0.050
   15 184   108  23.00  31.00  14.00 -99.000   5.332   4.474   0.863   7.054   6.564   0.489   0.000   0.000  364.55  261.34  160.37  100.97    0.00    0.00 -99.000 -99.000 -99.000   0.341   0.085   0.031   0.012   0.006   0.005   0.003   0.004   0.002   0.656   0.050
   15 185   109  27.00  32.00  16.00 -99.000   6.427   5.358   1.074   6.754   6.305   0.450   0.000   0.000  370.98  268.09  166.68  101.42    0.00    0.00 -99.000 -99.000 -99.000   0.310   0.079   0.030   0.011   0.006   0.005   0.003   0.004   0.002   0.630   0.047
   15 186   110  27.00  33.00  17.00 -99.000   6.549   5.423   1.131   6.299   5.884   0.415   0.000   0.000  377.53  274.39  172.56  101.83    0.00    0.00 -99.000 -99.000 -99.000   0.282   0.074   0.028   0.011   0.006   0.005   0.003   0.004   0.002   0.588   0.043
   15 187   111  23.00  28.00  17.00 -99.000   5.277   4.369   0.913   6.152   5.769   0.383   0.000   0.000  382.80  280.55  178.33  102.21    0.00    0.00 -99.000 -99.000 -99.000   0.257   0.069   0.027   0.011   0.005   0.005   0.003   0.004   0.002   0.577   0.035
   15 188   112  26.00  33.00  16.00 -99.000   6.260   5.177   1.088   4.359   3.826   0.533   0.000   0.000  389.06  284.90  182.16  102.75    0.00    0.00 -99.000 -99.000 -99.000   0.413   0.065   0.026   0.010   0.005   0.005   0.003   0.004   0.002   0.383   0.024
   15 189   113  16.00  21.00  13.00 -99.000   3.275   2.705   0.574   6.414   5.841   0.574   0.000   0.000  392.34  291.32  188.00  103.32    0.00    0.00 -99.000 -99.000 -99.000   0.498   0.041   0.016   0.006   0.003   0.003   0.002   0.003   0.001   0.584   0.024
   15 190   114  17.00  19.00   8.00 -99.000   3.252   2.679   0.576   2.425   1.848   0.576   0.000   0.000  395.59  293.74  189.85  103.90    0.00    0.00 -99.000 -99.000 -99.000   0.510   0.037   0.014   0.005   0.003   0.002   0.002   0.002   0.001   0.185   0.028
   15 191   115  29.00  22.00   7.00 -99.000   5.723   4.704   1.025   3.084   2.167   0.917   0.000   0.000  401.31  296.83  192.01  104.81    0.00    0.00 -99.000 -99.000 -99.000   0.802   0.064   0.024   0.009   0.005   0.004   0.003   0.004   0.002   0.217   0.027
   15 192   116  26.00  28.00   8.00 -99.000   5.583   4.579   1.009   5.241   4.449   0.792   0.000   0.000  406.90  302.07  196.46  105.60    0.00    0.00 -99.000 -99.000 -99.000   0.678   0.063   0.023   0.009   0.005   0.004   0.003   0.004   0.002   0.445   0.026
   15 193   117  24.00  27.00  13.00 -99.000   5.296   4.333   0.968   6.987   6.346   0.642   0.000   0.000  412.19  309.06  202.81  106.25    0.00    0.00 -99.000 -99.000 -99.000   0.532   0.060   0.023   0.009   0.005   0.004   0.003   0.004   0.002   0.635   0.015
   15 194   118  10.00  21.00  15.00 -99.000   2.083   1.698   0.387   4.850   4.463   0.387   0.000   0.000  414.27  313.91  207.27  106.63    0.00    0.00 -99.000 -99.000 -99.000   0.313   0.040   0.015   0.006   0.003   0.003   0.002   0.003   0.002   0.446   0.009
   15 195   119  16.00  25.00  15.00 -99.000   3.504   2.842   0.664   1.574   1.032   0.542   0.000   0.000  417.78  315.48  208.30  107.18    0.00    0.00 -99.000 -99.000 -99.000   0.440   0.055   0.021   0.008   0.004   0.004   0.003   0.004   0.002   0.103   0.008
   15 196   120  23.00  27.00  16.00 -99.000   5.198   4.197   1.006   2.962   2.470   0.492   0.000   0.000  422.98  318.44  210.77  107.67    0.00    0.00 -99.000 -99.000 -99.000   0.392   0.054   0.021   0.008   0.004   0.004   0.003   0.004   0.002   0.247   0.007
   15 197   121  26.00  31.00  13.00 -99.000   6.015   4.826   1.195   3.969   3.526   0.443   0.000   0.000  428.99  322.41  214.30  108.11    0.00    0.00 -99.000 -99.000 -99.000   0.344   0.053   0.020   0.008   0.004   0.004   0.003   0.004   0.002   0.353   0.006
   15 198   122  23.00  33.00  15.00 -99.000   5.526   4.399   1.131   5.726   5.318   0.408   0.000   0.000  434.52  328.14  219.62  108.52    0.00    0.00 -99.000 -99.000 -99.000   0.311   0.052   0.020   0.008   0.004   0.004   0.002   0.004   0.002   0.532   0.005
   15 199   123  16.00  29.00  14.00 -99.000   3.651   2.881   0.772   4.416   4.039   0.377   0.000   0.000  438.17  332.55  223.66  108.90    0.00    0.00 -99.000 -99.000 -99.000   0.283   0.050   0.019   0.008   0.004   0.003   0.002   0.004   0.002   0.404   0.003
   15 200   124  16.00  28.00  16.00 -99.000   3.669   2.863   0.809   2.734   2.385   0.349   0.000   0.000  441.84  335.29  226.04  109.24    0.00    0.00 -99.000 -99.000 -99.000   0.258   0.049   0.019   0.007   0.004   0.003   0.002   0.004   0.002   0.238   0.002
   15 201   125  19.00  28.00  18.00 -99.000   4.429   3.409   1.024   2.070   1.746   0.324   0.000   0.000  446.27  337.36  227.79  109.57    0.00    0.00 -99.000 -99.000 -99.000   0.235   0.048   0.018   0.007   0.004   0.003   0.002   0.004   0.002   0.175   0.001
   15 202   126  26.00  32.00  16.00 -99.000   6.255   4.731   1.528   1.793   1.491   0.302   0.000   0.000  452.52  339.15  229.28  109.87    0.00    0.00 -99.000 -99.000 -99.000   0.214   0.048   0.018   0.007   0.004   0.003   0.002   0.004   0.002   0.149   0.001
   15 203   127  25.00  34.00  15.00 -99.000   6.116   4.526   1.594   2.713   2.430   0.283   0.000   0.000  458.64  341.86  231.71  110.15    0.00    0.00 -99.000 -99.000 -99.000   0.195   0.048   0.018   0.007   0.004   0.003   0.002   0.004   0.002   0.243   0.001
   15 204   128  12.00  24.00  18.00 -99.000   2.688   1.938   0.753   2.550   2.241   0.309   0.000   0.000  461.32  344.41  233.95  110.46    0.00    0.00 -99.000 -99.000 -99.000   0.222   0.047   0.017   0.007   0.004   0.003   0.002   0.004   0.002   0.224   0.001
   15 205   129  21.00  29.00  14.00 -99.000   4.858   3.374   1.488   0.745   0.412   0.333   0.000   0.000  466.18  345.16  234.36  110.79    0.00    0.00 -99.000 -99.000 -99.000   0.247   0.047   0.017   0.007   0.004   0.003   0.002   0.004   0.002   0.041   0.001
   15 206   130  21.00  25.00  12.00 -99.000   4.576   3.059   1.521   1.608   1.298   0.310   0.000   0.000  470.76  346.76  235.66  111.11    0.00    0.00 -99.000 -99.000 -99.000   0.225   0.047   0.017   0.007   0.004   0.003   0.002   0.004   0.002   0.130   0.000
   15 207   131  26.00  23.00   8.00 -99.000   5.363   3.422   1.945   1.198   0.909   0.289   0.000   0.000  476.12  347.96  236.57  111.39    0.00    0.00 -99.000 -99.000 -99.000   0.205   0.046   0.017   0.007   0.003   0.003   0.002   0.004   0.002   0.091   0.000
   15 208   132  19.00  23.00  12.00 -99.000   4.073   2.472   1.603   1.332   0.928   0.405   0.000   0.000  480.19  349.30  237.50  111.80    0.00    0.00 -99.000 -99.000 -99.000   0.321   0.046   0.016   0.007   0.003   0.003   0.002   0.004   0.002   0.093   0.000
   15 209   133  17.00  22.00  12.00 -99.000   3.632   2.097   1.537   1.243   0.689   0.555   0.000   0.000  483.82  350.54  238.18  112.35    0.00    0.00 -99.000 -99.000 -99.000   0.471   0.046   0.016   0.007   0.003   0.003   0.002   0.004   0.002   0.069   0.001
   15 210   134  12.00  20.00   9.00 -99.000   2.448   1.327   1.123   1.135   0.553   0.582   0.000   0.000  486.27  351.67  238.74  112.94    0.00    0.00 -99.000 -99.000 -99.000   0.499   0.046   0.016   0.007   0.003   0.003   0.002   0.004   0.002   0.055   0.001
   15 211   135  21.00  21.00   7.00 -99.000   4.294   2.163   2.134   0.973   0.410   0.563   0.000   0.000  490.57  352.65  239.15  113.50    0.00    0.00 -99.000 -99.000 -99.000   0.480   0.045   0.016   0.007   0.003   0.003   0.002   0.004   0.002   0.041   0.001
   15 212   136  25.00  23.00   9.00 -99.000   5.366   2.512   2.858   1.071   0.569   0.503   0.000   0.000  495.93  353.72  239.72  114.00    0.00    0.00 -99.000 -99.000 -99.000   0.420   0.045   0.016   0.007   0.003   0.003   0.002   0.004   0.002   0.057   0.001
   15 213   137  10.00  20.00  13.00 -99.000   2.148   0.919   1.229   0.976   0.528   0.448   0.000   0.000  498.08  354.69  240.24  114.45    0.00    0.00 -99.000 -99.000 -99.000   0.366   0.045   0.016   0.007   0.003   0.003   0.002   0.004   0.002   0.053   0.000
   15 214   138  19.00  25.00  12.00 -99.000   4.342   1.626   2.718   0.522   0.114   0.408   0.000   0.000  502.42  355.22  240.36  114.86    0.00    0.00 -99.000 -99.000 -99.000   0.326   0.045   0.016   0.007   0.003   0.003   0.002   0.004   0.002   0.011   0.000
   15 215   139  26.00  28.00  11.00 -99.000   6.168   1.915   4.256   0.659   0.281   0.378   0.000   0.000  508.59  355.88  240.64  115.24    0.00    0.00 -99.000 -99.000 -99.000   0.297   0.044   0.016   0.007   0.003   0.003   0.002   0.004   0.002   0.028   0.000
   15 216   140  21.00  31.00  12.00 -99.000   5.263   1.198   4.066   0.672   0.321   0.351   0.000   0.000  513.85  356.55  240.96  115.59    0.00    0.00 -99.000 -99.000 -99.000   0.270   0.044   0.016   0.007   0.003   0.003   0.002   0.004   0.002   0.032   0.000
   15 217   141  24.00  29.00  13.00 -99.000   6.010   0.760   5.251   0.403   0.077   0.327   0.000   0.000  519.86  356.95  241.04  115.91    0.00    0.00 -99.000 -99.000 -99.000   0.246   0.044   0.016   0.007   0.003   0.003   0.002   0.004   0.002   0.008   0.000
   15 218   142  25.00  33.00  13.00 -99.000   6.671   0.000   6.671   0.304   0.000   0.304   0.000   0.000  526.53  357.26  241.04  116.22    0.00    0.00 -99.000 -99.000 -99.000   0.224   0.044   0.016   0.007   0.003   0.003   0.002   0.004   0.002   0.000   0.000
   15 219   143  25.00  35.00  14.00 -99.000   6.863   0.000   6.863   0.284   0.000   0.284   0.000   0.000  533.40  357.54  241.04  116.50    0.00    0.00 -99.000 -99.000 -99.000   0.204   0.043   0.016   0.007   0.003   0.003   0.002   0.004   0.002   0.000   0.000
   15 220   144  22.00  34.00  15.00 -99.000   6.012   0.000   6.012   0.310   0.000   0.310   0.000   0.000  539.41  357.85  241.04  116.81    0.00    0.00 -99.000 -99.000 -99.000   0.230   0.043   0.016   0.007   0.003   0.003   0.002   0.004   0.002   0.000   0.000
   15 221   145  22.00  33.00  16.00 -99.000   6.010   0.000   6.010   0.334   0.000   0.334   0.000   0.000  545.42  358.18  241.04  117.15    0.00    0.00 -99.000 -99.000 -99.000   0.255   0.043   0.016   0.007   0.003   0.003   0.002   0.004   0.002   0.000   0.000
   15 222   146  18.00  30.00  17.00 -99.000   4.787   0.000   4.787   0.311   0.000   0.311   0.000   0.000  550.21  358.50  241.04  117.46    0.00    0.00 -99.000 -99.000 -99.000   0.232   0.043   0.016   0.007   0.003   0.003   0.002   0.004   0.002   0.000   0.000
   15 223   147  19.00  31.00  16.00 -99.000   5.067   0.000   5.067   0.290   0.000   0.290   0.000   0.000  555.27  358.79  241.04  117.75    0.00    0.00 -99.000 -99.000 -99.000   0.211   0.042   0.016   0.007   0.003   0.003   0.002   0.004   0.002   0.000   0.000
   15 224   148  21.00  33.00  14.00 -99.000   5.637   0.000   5.637   0.271   0.000   0.271   0.000   0.000  560.91  359.06  241.04  118.02    0.00    0.00 -99.000 -99.000 -99.000   0.192   0.042   0.016   0.007   0.003   0.003   0.002   0.004   0.002   0.000   0.000

*DSSAT Cropping System Model Ver. 4.8.5.000 -release  OCT 27, 2025 22:35:44

*RUN   2        : 2                         WHAPS048 TUDU1501    2
 MODEL          : WHAPS048 - Wheat
 EXPERIMENT     : TUDU1501 WH
 DATA PATH      :
 TREATMENT  2   : 2                         WHAPS048
  
!                                                                                                                                                                                        Soil evaporation (mm/d) by soil depth (cm):
!                                                                                                                                                                                        0-5    5-15   15-30   30-45   45-60   60-80  80-100 100-150 150-200
@YEAR DOY   DAS   SRAA  TMAXA  TMINA    REFA    EOAA    EOPA    EOSA    ETAA    EPAA    ESAA    EFAA    EMAA    EOAC    ETAC    EPAC    ESAC    EFAC    EMAC    KCAA    KBSA    KEAA    ES1D    ES2D    ES3D    ES4D    ES5D    ES6D    ES7D    ES8D    ES9D   TRWUD   TWUPD
   15 077     1  16.00  14.00   0.00 -99.000   3.054   0.000   3.054   1.110   0.000   1.110   0.000   0.000    3.05    1.11    0.00    1.11    0.00    0.00 -99.000 -99.000 -99.000   0.913   0.121   0.038   0.015   0.008   0.006   0.003   0.004   0.002   0.000   0.000
   15 078     2  17.00  13.00  -1.00 -99.000   3.153   0.000   3.153   1.127   0.000   1.127   0.000   0.000    6.21    2.24    0.00    2.24    0.00    0.00 -99.000 -99.000 -99.000   0.923   0.126   0.039   0.015   0.008   0.006   0.003   0.004   0.002   0.000   0.000
   15 079     3  17.00  13.00  -2.00 -99.000   3.106   0.000   3.106   1.035   0.000   1.035   0.000   0.000    9.31    3.27    0.00    3.27    0.00    0.00 -99.000 -99.000 -99.000   0.832   0.125   0.039   0.015   0.008   0.006   0.003   0.004   0.002   0.000   0.000
   15 080     4  13.00  14.00  -3.00 -99.000   2.380   0.000   2.380   1.051   0.000   1.051   0.000   0.000   11.69    4.32    0.00    4.32    0.00    0.00 -99.000 -99.000 -99.000   0.849   0.125   0.039   0.015   0.008   0.006   0.003   0.004   0.002   0.000   0.000
   15 081     5   5.00   5.00   2.00 -99.000   0.833   0.000   0.833   0.833   0.000   0.833   0.000   0.000   12.53    5.16    0.00    5.16    0.00    0.00 -99.000 -99.000 -99.000   0.676   0.097   0.031   0.012   0.006   0.004   0.003   0.003   0.002   0.000   0.000
   15 082     6   7.00   6.00   0.00 -99.000   1.156   0.000   1.156   0.994   0.000   0.994   0.000   0.000   13.68    6.15    0.00    6.15    0.00    0.00 -99.000 -99.000 -99.000   0.794   0.123   0.039   0.015   0.008   0.006   0.003   0.004   0.002   0.000   0.000
   15 083     7  15.00  15.00  -2.00 -99.000   2.818   0.000   2.818   0.915   0.000   0.915   0.000   0.000   16.50    7.06    0.00    7.06    0.00    0.00 -99.000 -99.000 -99.000   0.716   0.122   0.039   0.015   0.008   0.006   0.003   0.004   0.002   0.000   0.000
   15 084     8  14.00  15.00   2.00 -99.000   2.734   0.000   2.734   0.844   0.000   0.844   0.000   0.000   19.23    7.91    0.00    7.91    0.00    0.00 -99.000 -99.000 -99.000   0.645   0.122   0.039   0.015   0.008   0.006   0.003   0.004   0.002   0.000   0.000
   15 085     9   3.00   7.00   4.00 -99.000   0.524   0.000   0.524   0.524   0.000   0.524   0.000   0.000   19.76    8.43    0.00    8.43    0.00    0.00 -99.000 -99.000 -99.000   0.391   0.081   0.026   0.010   0.005   0.004   0.002   0.003   0.001   0.000   0.000
   15 086    10  10.00   9.00   3.00 -99.000   1.784   0.000   1.784   0.790   0.000   0.790   0.000   0.000   21.54    9.22    0.00    9.22    0.00    0.00 -99.000 -99.000 -99.000   0.592   0.120   0.039   0.015   0.008   0.006   0.003   0.004   0.002   0.000   0.000
   15 087    11  17.00  11.00   1.00 -99.000   3.072   0.000   3.072   0.779   0.000   0.779   0.000   0.000   24.61   10.00    0.00   10.00    0.00    0.00 -99.000 -99.000 -99.000   0.582   0.120   0.039   0.015   0.008   0.006   0.003   0.004   0.002   0.000   0.000
   15 088    12   6.00  12.00   6.00 -99.000   1.160   0.000   1.160   0.721   0.000   0.721   0.000   0.000   25.77   10.72    0.00   10.72    0.00    0.00 -99.000 -99.000 -99.000   0.525   0.119   0.039   0.015   0.008   0.006   0.003   0.004   0.002   0.000   0.000
   15 089    13   9.00   9.00   3.00 -99.000   1.601   0.000   1.601   0.969   0.000   0.969   0.000   0.000   27.37   11.69    0.00   11.69    0.00    0.00 -99.000 -99.000 -99.000   0.771   0.121   0.039   0.015   0.008   0.006   0.003   0.004   0.002   0.000   0.000
   15 090    14   8.00  13.00   1.00 -99.000   1.518   0.017   1.501   1.518   0.017   1.501   0.000   0.000   28.89   13.21    0.02   13.19    0.00    0.00 -99.000 -99.000 -99.000   0.295   0.214   0.189   0.138   0.109   0.118   0.099   0.189   0.149   0.002   0.007
   15 091    15  13.00   6.00   0.00 -99.000   2.172   0.027   2.145   2.157   0.013   2.145   0.000   0.000   31.06   15.37    0.03   15.34    0.00    0.00 -99.000 -99.000 -99.000   0.447   0.310   0.267   0.193   0.152   0.165   0.138   0.264   0.209   0.001   0.007
   15 092    16   7.00   6.00   0.00 -99.000   1.172   0.016   1.156   1.161   0.005   1.156   0.000   0.000   32.24   16.53    0.03   16.49    0.00    0.00 -99.000 -99.000 -99.000   0.250   0.169   0.143   0.103   0.081   0.087   0.073   0.140   0.110   0.000   0.007
   15 093    17  20.00   9.00  -1.00 -99.000   3.505   0.050   3.455   3.459   0.003   3.455   0.000   0.000   35.74   19.99    0.04   19.95    0.00    0.00 -99.000 -99.000 -99.000   0.696   0.504   0.436   0.317   0.248   0.267   0.224   0.427   0.338   0.000   0.007
   15 094    18   7.00   5.00   1.00 -99.000   1.158   0.019   1.139   1.155   0.016   1.139   0.000   0.000   36.90   21.14    0.05   21.09    0.00    0.00 -99.000 -99.000 -99.000   0.233   0.165   0.143   0.104   0.081   0.088   0.074   0.140   0.111   0.002   0.007
   15 095    19  13.00   6.00  -2.00 -99.000   2.124   0.037   2.088   2.090   0.003   2.088   0.000   0.000   39.02   23.23    0.06   23.17    0.00    0.00 -99.000 -99.000 -99.000   0.412   0.303   0.264   0.192   0.151   0.163   0.136   0.260   0.206   0.000   0.007
   15 096    20  10.00   6.00  -2.00 -99.000   1.623   0.030   1.593   1.601   0.008   1.593   0.000   0.000   40.65   24.83    0.06   24.77    0.00    0.00 -99.000 -99.000 -99.000   0.297   0.232   0.204   0.149   0.117   0.127   0.106   0.202   0.160   0.001   0.007
   15 097    21  20.00   8.00  -2.00 -99.000   3.358   0.065   3.292   3.299   0.007   3.292   0.000   0.000   44.00   28.13    0.07   28.06    0.00    0.00 -99.000 -99.000 -99.000   0.601   0.479   0.422   0.308   0.244   0.264   0.221   0.421   0.333   0.001   0.007
   15 098    22  19.00  13.00   0.00 -99.000   3.547   0.078   3.469   1.107   0.018   1.089   0.000   0.000   47.55   29.24    0.09   29.15    0.00    0.00 -99.000 -99.000 -99.000   0.891   0.122   0.038   0.015   0.008   0.006   0.003   0.004   0.002   0.002   0.007
   15 099    23  20.00  18.00   2.00 -99.000   4.101   0.105   3.996   1.046   0.044   1.002   0.000   0.000   51.65   30.28    0.13   30.15    0.00    0.00 -99.000 -99.000 -99.000   0.805   0.121   0.038   0.015   0.008   0.006   0.003   0.004   0.002   0.004   0.007
   15 100    24  20.00  21.00   1.00 -99.000   4.223   0.129   4.094   1.015   0.094   0.922   0.000   0.000   55.87   31.30    0.23   31.07    0.00    0.00 -99.000 -99.000 -99.000   0.725   0.120   0.038   0.015   0.008   0.006   0.003   0.004   0.002   0.009   0.007
   15 101    25  13.00  18.00   5.00 -99.000   2.721   0.096   2.625   0.967   0.121   0.846   0.000   0.000   58.60   32.27    0.35   31.92    0.00    0.00 -99.000 -99.000 -99.000   0.651   0.119   0.038   0.015   0.008   0.006   0.003   0.004   0.002   0.012   0.007
   15 102    26  15.00  18.00   5.00 -99.000   3.127   0.127   3.000   0.864   0.088   0.776   0.000   0.000   61.72   33.13    0.44   32.69    0.00    0.00 -99.000 -99.000 -99.000   0.582   0.118   0.038   0.015   0.008   0.006   0.003   0.004   0.002   0.009   0.004
   15 103    27  15.00  18.00   5.00 -99.000   3.116   0.148   2.969   0.827   0.111   0.716   0.000   0.000   64.84   33.96    0.55   33.41    0.00    0.00 -99.000 -99.000 -99.000   0.523   0.117   0.038   0.015   0.008   0.006   0.003   0.004   0.002   0.011   0.002
   15 104    28  20.00  18.00   5.00 -99.000   4.140   0.227   3.913   0.789   0.129   0.660   0.000   0.000   68.98   34.75    0.68   34.07    0.00    0.00 -99.000 -99.000 -99.000   0.468   0.116   0.038   0.015   0.008   0.006   0.003   0.004   0.002   0.013   0.002
   15 105    29  23.00  23.00   5.00 -99.000   5.083   0.331   4.753   0.790   0.179   0.610   0.000   0.000   74.06   35.53    0.85   34.68    0.00    0.00 -99.000 -99.000 -99.000   0.420   0.115   0.038   0.015   0.008   0.006   0.003   0.004   0.002   0.018   0.002
   15 106    30  14.00  21.00   9.00 -99.000   3.109   0.244   2.866   0.953   0.388   0.565   0.000   0.000   77.17   36.49    1.24   35.25    0.00    0.00 -99.000 -99.000 -99.000   0.376   0.114   0.038   0.015   0.008   0.006   0.003   0.004   0.002   0.039   0.002
   15 107    31   8.00  16.00   5.00 -99.000   1.590   0.143   1.447   1.684   0.237   1.447   0.000   0.000   78.76   38.17    1.48   36.69    0.00    0.00 -99.000 -99.000 -99.000   0.235   0.228   0.192   0.138   0.108   0.116   0.097   0.186   0.147   0.024   0.002
   15 108    32  18.00  10.00   0.00 -99.000   3.204   0.317   2.888   3.015   0.127   2.888   0.000   0.000   81.97   41.19    1.61   39.58    0.00    0.00 -99.000 -99.000 -99.000   0.590   0.443   0.363   0.259   0.205   0.218   0.183   0.349   0.276   0.013   0.007
   15 109    33  24.00  12.00   0.00 -99.000   4.367   0.474   3.894   4.011   0.116   3.894   0.000   0.000   86.33   45.20    1.72   43.48    0.00    0.00 -99.000 -99.000 -99.000   0.735   0.580   0.497   0.360   0.284   0.306   0.256   0.490   0.387   0.012   0.007
   15 110    34  24.00  16.00   0.00 -99.000   4.621   0.564   4.057   4.274   0.217   4.057   0.000   0.000   90.95   49.47    1.94   47.53    0.00    0.00 -99.000 -99.000 -99.000   0.725   0.596   0.524   0.380   0.301   0.325   0.273   0.521   0.412   0.022   0.007
   15 111    35  25.00  19.00   1.00 -99.000   5.052   0.725   4.328   1.451   0.425   1.027   0.000   0.000   96.01   50.92    2.36   48.56    0.00    0.00 -99.000 -99.000 -99.000   0.830   0.121   0.038   0.015   0.008   0.006   0.003   0.004   0.002   0.042   0.008
   15 112    36  24.00  19.00   2.00 -99.000   4.856   0.826   4.031   1.622   0.696   0.926   0.000   0.000  100.86   52.54    3.06   49.48    0.00    0.00 -99.000 -99.000 -99.000   0.731   0.119   0.038   0.015   0.008   0.006   0.003   0.004   0.002   0.070   0.008
   15 113    37  15.00  12.00   0.00 -99.000   2.643   0.528   2.116   1.607   0.783   0.824   0.000   0.000  103.50   54.15    3.84   50.31    0.00    0.00 -99.000 -99.000 -99.000   0.632   0.117   0.038   0.015   0.008   0.006   0.003   0.004   0.002   0.078   0.008
   15 114    38  24.00  18.00   0.00 -99.000   4.624   0.987   3.638   1.032   0.298   0.734   0.000   0.000  108.13   55.18    4.14   51.04    0.00    0.00 -99.000 -99.000 -99.000   0.545   0.114   0.038   0.015   0.008   0.006   0.003   0.004   0.002   0.030   0.005
   15 115    39  12.00  19.00   3.00 -99.000   2.400   0.579   1.822   1.656   0.936   0.720   0.000   0.000  110.53   56.84    5.08   51.76    0.00    0.00 -99.000 -99.000 -99.000   0.532   0.113   0.038   0.015   0.008   0.006   0.003   0.004   0.002   0.094   0.004
   15 116    40  19.00  20.00  10.00 -99.000   4.098   1.090   3.010   1.439   0.698   0.741   0.000   0.000  114.63   58.28    5.77   52.50    0.00    0.00 -99.000 -99.000 -99.000   0.557   0.109   0.037   0.015   0.008   0.006   0.003   0.004   0.002   0.070   0.005
   15 117    41  21.00  22.00   6.00 -99.000   4.467   1.347   3.122   1.747   0.811   0.935   0.000   0.000  119.09   60.02    6.59   53.44    0.00    0.00 -99.000 -99.000 -99.000   0.754   0.107   0.037   0.015   0.007   0.006   0.003   0.004   0.002   0.081   0.006
   15 118    42   8.00  12.00   4.00 -99.000   1.448   0.495   0.953   2.465   1.511   0.953   0.000   0.000  120.54   62.49    8.10   54.39    0.00    0.00 -99.000 -99.000 -99.000   0.195   0.127   0.117   0.088   0.070   0.076   0.064   0.122   0.096   0.151   0.011
   15 119    43  22.00  13.00   0.00 -99.000   3.889   1.408   2.484   2.755   0.271   2.484   0.000   0.000  124.43   65.24    8.37   56.88    0.00    0.00 -99.000 -99.000 -99.000   0.500   0.348   0.300   0.227   0.181   0.196   0.165   0.316   0.250   0.027   0.012
   15 120    44  16.00  15.00   5.00 -99.000   3.052   1.150   1.904   2.711   0.807   1.904   0.000   0.000  127.48   67.95    9.18   58.78    0.00    0.00 -99.000 -99.000 -99.000   0.370   0.275   0.229   0.175   0.139   0.151   0.127   0.244   0.193   0.081   0.012
   15 121    45   8.00   9.00   7.00 -99.000   1.410   0.574   0.836   1.556   0.720   0.836   0.000   0.000  128.89   69.51    9.90   59.62    0.00    0.00 -99.000 -99.000 -99.000   0.173   0.132   0.106   0.075   0.058   0.062   0.052   0.099   0.079   0.072   0.013
   15 122    46  12.00  13.00   7.00 -99.000   2.263   0.966   1.298   1.372   0.074   1.298   0.000   0.000  131.15   70.88    9.97   60.91    0.00    0.00 -99.000 -99.000 -99.000   0.268   0.206   0.175   0.120   0.091   0.095   0.078   0.148   0.118   0.007   0.014
   15 123    47   9.00  16.00  10.00 -99.000   1.809   0.825   0.985   1.378   0.393   0.985   0.000   0.000  132.96   72.26   10.36   61.90    0.00    0.00 -99.000 -99.000 -99.000   0.209   0.158   0.130   0.091   0.069   0.072   0.059   0.110   0.087   0.039   0.015
   15 124    48  16.00  20.00  14.00 -99.000   3.511   1.695   1.818   2.271   0.453   1.818   0.000   0.000  136.47   74.53   10.82   63.72    0.00    0.00 -99.000 -99.000 -99.000   0.365   0.279   0.235   0.169   0.131   0.138   0.115   0.216   0.170   0.045   0.015
   15 125    49  12.00  25.00  12.00 -99.000   2.723   1.421   1.303   2.195   0.891   1.303   0.000   0.000  139.20   76.73   11.71   65.02    0.00    0.00 -99.000 -99.000 -99.000   0.263   0.195   0.168   0.121   0.095   0.100   0.083   0.157   0.123   0.089   0.016
   15 126    50  14.00  14.00   8.00 -99.000   2.629   1.456   1.176   3.032   1.857   1.176   0.000   0.000  141.83   79.76   13.56   66.20    0.00    0.00 -99.000 -99.000 -99.000   0.247   0.183   0.155   0.108   0.083   0.087   0.072   0.135   0.106   0.186   0.017
   15 127    51  22.00  18.00   8.00 -99.000   4.365   2.532   1.837   2.458   0.621   1.837   0.000   0.000  146.19   82.22   14.18   68.03    0.00    0.00 -99.000 -99.000 -99.000   0.360   0.283   0.243   0.170   0.132   0.140   0.116   0.220   0.173   0.062   0.018
   15 128    52  23.00  22.00   8.00 -99.000   4.774   2.901   1.877   3.615   1.738   1.877   0.000   0.000  150.97   85.83   15.92   69.91    0.00    0.00 -99.000 -99.000 -99.000   0.349   0.279   0.245   0.176   0.138   0.147   0.123   0.235   0.185   0.174   0.020
   15 129    53  13.00  17.00  10.00 -99.000   2.548   1.622   0.928   3.948   3.020   0.928   0.000   0.000  153.51   89.78   18.94   70.84    0.00    0.00 -99.000 -99.000 -99.000   0.177   0.135   0.119   0.086   0.068   0.073   0.061   0.116   0.092   0.302   0.022
   15 130    54  22.00  19.00   7.00 -99.000   4.301   2.840   1.465   2.447   0.982   1.465   0.000   0.000  157.82   92.23   19.92   72.30    0.00    0.00 -99.000 -99.000 -99.000   0.276   0.210   0.187   0.137   0.108   0.117   0.098   0.187   0.147   0.098   0.025
   15 131    55  23.00  21.00   5.00 -99.000   4.514   3.078   1.441   3.856   2.415   1.441   0.000   0.000  162.33   96.08   22.34   73.74    0.00    0.00 -99.000 -99.000 -99.000   0.261   0.205   0.184   0.136   0.107   0.117   0.098   0.186   0.147   0.241   0.027
   15 132    56  23.00  27.00   8.00 -99.000   4.987   3.500   1.492   4.987   3.495   1.492   0.000   0.000  167.32  101.07   25.83   75.24    0.00    0.00 -99.000 -99.000 -99.000   0.254   0.211   0.192   0.142   0.113   0.124   0.104   0.198   0.156   0.350   0.029
   15 133    57  20.00  22.00  13.00 -99.000   4.223   3.071   1.156   6.482   5.326   1.156   0.000   0.000  171.54  107.55   31.16   76.39    0.00    0.00 -99.000 -99.000 -99.000   0.217   0.161   0.142   0.106   0.085   0.095   0.079   0.151   0.119   0.533   0.031
   15 134    58  18.00  18.00  11.00 -99.000   3.541   2.654   0.891   3.311   2.420   0.891   0.000   0.000  175.08  110.86   33.58   77.28    0.00    0.00 -99.000 -99.000 -99.000   0.174   0.124   0.105   0.080   0.064   0.073   0.061   0.117   0.092   0.242   0.034
   15 135    59   8.00  15.00   7.00 -99.000   1.447   1.108   0.340   1.874   1.533   0.340   0.000   0.000  176.53  112.74   35.11   77.62    0.00    0.00 -99.000 -99.000 -99.000   0.283   0.035   0.011   0.004   0.002   0.002   0.001   0.001   0.001   0.153   0.037
   15 136    60  24.00  19.00   5.00 -99.000   4.499   3.496   1.008   1.817   0.809   1.008   0.000   0.000  181.03  114.55   35.92   78.63    0.00    0.00 -99.000 -99.000 -99.000   0.830   0.109   0.033   0.013   0.007   0.006   0.003   0.004   0.002   0.081   0.039
   15 137    61  17.00  17.00  10.00 -99.000   3.237   2.553   0.688   3.884   3.196   0.688   0.000   0.000  184.26  118.44   39.12   79.32    0.00    0.00 -99.000 -99.000 -99.000   0.562   0.077   0.024   0.009   0.005   0.004   0.002   0.003   0.002   0.320   0.041
   15 138    62  26.00  23.00   7.00 -99.000   5.208   4.209   1.005   2.100   1.196   0.904   0.000   0.000  189.47  120.54   40.31   80.22    0.00    0.00 -99.000 -99.000 -99.000   0.733   0.103   0.032   0.013   0.007   0.006   0.003   0.004   0.002   0.120   0.042
   15 139    63  10.00  18.00   9.00 -99.000   1.899   1.574   0.327   4.355   4.028   0.327   0.000   0.000  191.37  124.89   44.34   80.55    0.00    0.00 -99.000 -99.000 -99.000   0.065   0.048   0.038   0.028   0.022   0.027   0.023   0.043   0.034   0.403   0.043
   15 140    64   8.00  10.00   6.00 -99.000   1.313   1.100   0.215   1.175   0.960   0.215   0.000   0.000  192.68  126.07   45.30   80.76    0.00    0.00 -99.000 -99.000 -99.000   0.050   0.035   0.026   0.017   0.013   0.016   0.013   0.025   0.020   0.096   0.045
   15 141    65  12.00  12.00   7.00 -99.000   2.052   1.730   0.325   0.530   0.205   0.325   0.000   0.000  194.74  126.60   45.51   81.09    0.00    0.00 -99.000 -99.000 -99.000   0.069   0.052   0.043   0.028   0.020   0.024   0.020   0.038   0.030   0.021   0.045
   15 142    66  22.00  15.00   4.00 -99.000   3.811   3.241   0.575   0.970   0.395   0.575   0.000   0.000  198.55  127.57   45.90   81.66    0.00    0.00 -99.000 -99.000 -99.000   0.113   0.088   0.075   0.053   0.039   0.044   0.037   0.070   0.056   0.040   0.045
   15 143    67  15.00  16.00   6.00 -99.000   2.683   2.309   0.377   1.701   1.325   0.377   0.000   0.000  201.23  129.27   47.23   82.04    0.00    0.00 -99.000 -99.000 -99.000   0.076   0.056   0.049   0.034   0.027   0.029   0.024   0.046   0.036   0.132   0.045
   15 144    68  12.00  15.00   8.00 -99.000   2.155   1.868   0.290   1.277   0.988   0.290   0.000   0.000  203.38  130.55   48.22   82.33    0.00    0.00 -99.000 -99.000 -99.000   0.058   0.042   0.037   0.027   0.021   0.022   0.019   0.035   0.028   0.099   0.046
   15 145    69  15.00  19.00   9.00 -99.000   2.874   2.504   0.373   0.958   0.585   0.373   0.000   0.000  206.26  131.50   48.80   82.70    0.00    0.00 -99.000 -99.000 -99.000   0.071   0.054   0.048   0.035   0.027   0.030   0.025   0.047   0.037   0.059   0.047
   15 146    70  13.00  15.00   8.00 -99.000   2.329   2.042   0.290   1.454   1.164   0.290   0.000   0.000  208.59  132.96   49.96   82.99    0.00    0.00 -99.000 -99.000 -99.000   0.054   0.042   0.037   0.027   0.021   0.023   0.019   0.037   0.029   0.116   0.047
   15 147    71  17.00  14.00   4.00 -99.000   2.880   2.538   0.346   0.928   0.582   0.346   0.000   0.000  211.47  133.89   50.55   83.34    0.00    0.00 -99.000 -99.000 -99.000   0.063   0.050   0.044   0.033   0.026   0.028   0.023   0.044   0.035   0.058   0.048
   15 148    72  27.00  20.00   3.00 -99.000   4.945   4.379   0.573   1.354   0.781   0.573   0.000   0.000  216.41  135.24   51.33   83.91    0.00    0.00 -99.000 -99.000 -99.000   0.103   0.082   0.073   0.054   0.042   0.046   0.039   0.074   0.058   0.078   0.048
   15 149    73  21.00  23.00   7.00 -99.000   4.151   3.702   0.454   2.699   2.245   0.454   0.000   0.000  220.56  137.94   53.57   84.37    0.00    0.00 -99.000 -99.000 -99.000   0.081   0.065   0.058   0.043   0.034   0.037   0.031   0.059   0.047   0.224   0.048
   15 150    74  17.00  18.00  11.00 -99.000   3.254   2.917   0.341   2.407   2.065   0.341   0.000   0.000  223.82  140.35   55.64   84.71    0.00    0.00 -99.000 -99.000 -99.000   0.059   0.048   0.044   0.032   0.025   0.028   0.024   0.045   0.036   0.207   0.049
   15 151    75  22.00  21.00   9.00 -99.000   4.303   3.872   0.436   1.155   0.718   0.436   0.000   0.000  228.12  141.50   56.36   85.14    0.00    0.00 -99.000 -99.000 -99.000   0.073   0.061   0.056   0.041   0.033   0.037   0.031   0.058   0.046   0.072   0.050
   15 152    76  21.00  26.00  11.00 -99.000   4.450   4.021   0.434   1.934   1.501   0.434   0.000   0.000  232.57  143.44   57.86   85.58    0.00    0.00 -99.000 -99.000 -99.000   0.071   0.061   0.056   0.041   0.033   0.036   0.031   0.058   0.046   0.150   0.050
   15 153    77  23.00  25.00  13.00 -99.000   4.895   4.411   0.489   2.582   2.093   0.489   0.000   0.000  237.46  146.02   59.95   86.07    0.00    0.00 -99.000 -99.000 -99.000   0.079   0.068   0.063   0.047   0.037   0.042   0.035   0.067   0.053   0.209   0.050
   15 154    78  27.00  28.00  12.00 -99.000   5.910   5.319   0.597   3.029   2.432   0.597   0.000   0.000  243.37  149.05   62.38   86.66    0.00    0.00 -99.000 -99.000 -99.000   0.093   0.082   0.077   0.057   0.045   0.051   0.043   0.083   0.065   0.243   0.051
   15 155    79  28.00  26.00  12.00 -99.000   5.980   5.393   0.593   5.095   4.502   0.593   0.000   0.000  249.35  154.14   66.88   87.26    0.00    0.00 -99.000 -99.000 -99.000   0.471   0.073   0.024   0.010   0.005   0.004   0.002   0.003   0.002   0.450   0.052
   15 156    80  28.00  28.00  15.00 -99.000   6.264   5.674   0.597   5.203   4.606   0.597   0.000   0.000  255.62  159.34   71.49   87.85    0.00    0.00 -99.000 -99.000 -99.000   0.462   0.079   0.027   0.011   0.005   0.004   0.003   0.003   0.002   0.461   0.049
   15 157    81  25.00  30.00  13.00 -99.000   5.631   5.125   0.511   5.405   4.894   0.511   0.000   0.000  261.25  164.75   76.38   88.36    0.00    0.00 -99.000 -99.000 -99.000   0.407   0.061   0.021   0.008   0.004   0.004   0.002   0.003   0.001   0.489   0.044
   15 158    82  24.00  26.00  16.00 -99.000   5.282   4.827   0.461   6.241   5.780   0.461   0.000   0.000  266.53  170.99   82.16   88.83    0.00    0.00 -99.000 -99.000 -99.000   0.377   0.048   0.017   0.007   0.003   0.003   0.002   0.002   0.001   0.578   0.055
   15 159    83   8.00  20.00  12.00 -99.000   1.581   1.439   0.144   4.035   3.891   0.144   0.000   0.000  268.11  175.03   86.06   88.97    0.00    0.00 -99.000 -99.000 -99.000   0.029   0.019   0.016   0.012   0.009   0.012   0.010   0.020   0.016   0.389   0.052
   15 160    84   6.00  13.00  11.00 -99.000   1.072   0.965   0.108   1.322   1.215   0.108   0.000   0.000  269.18  176.35   87.27   89.08    0.00    0.00 -99.000 -99.000 -99.000   0.024   0.016   0.012   0.008   0.006   0.008   0.007   0.014   0.011   0.121   0.058
   15 161    85   9.00  18.00  11.00 -99.000   1.724   1.550   0.175   0.381   0.206   0.175   0.000   0.000  270.91  176.73   87.48   89.25    0.00    0.00 -99.000 -99.000 -99.000   0.036   0.026   0.020   0.014   0.011   0.014   0.012   0.024   0.019   0.021   0.058
   15 162    86  16.00  22.00  14.00 -99.000   3.313   2.975   0.342   1.512   1.170   0.342   0.000   0.000  274.22  178.24   88.65   89.60    0.00    0.00 -99.000 -99.000 -99.000   0.068   0.052   0.040   0.027   0.021   0.027   0.024   0.046   0.037   0.117   0.058
   15 163    87  28.00  28.00  12.00 -99.000   6.138   5.500   0.644   3.002   2.358   0.644   0.000   0.000  280.36  181.24   91.00   90.24    0.00    0.00 -99.000 -99.000 -99.000   0.126   0.098   0.076   0.050   0.040   0.051   0.046   0.088   0.070   0.236   0.058
   15 164    88  20.00  25.00  14.00 -99.000   4.298   3.844   0.459   7.509   7.050   0.459   0.000   0.000  284.66  188.75   98.05   90.70    0.00    0.00 -99.000 -99.000 -99.000   0.101   0.069   0.053   0.034   0.027   0.035   0.032   0.061   0.048   0.705   0.059
   15 165    89  23.00  24.00  15.00 -99.000   4.931   4.401   0.535   4.498   3.963   0.535   0.000   0.000  289.59  193.25  102.02   91.23    0.00    0.00 -99.000 -99.000 -99.000   0.127   0.087   0.064   0.038   0.029   0.038   0.034   0.066   0.053   0.396   0.059
   15 166    90   9.00  16.00  13.00 -99.000   1.712   1.525   0.189   3.739   3.550   0.189   0.000   0.000  291.30  196.99  105.57   91.42    0.00    0.00 -99.000 -99.000 -99.000   0.043   0.033   0.026   0.015   0.009   0.012   0.011   0.022   0.017   0.355   0.059
   15 167    91  18.00  19.00  11.00 -99.000   3.503   3.116   0.391   0.892   0.501   0.391   0.000   0.000  294.80  197.88  106.07   91.81    0.00    0.00 -99.000 -99.000 -99.000   0.080   0.062   0.054   0.035   0.024   0.026   0.024   0.048   0.038   0.050   0.060
   15 168    92  21.00  19.00  10.00 -99.000   4.048   3.595   0.458   2.623   2.165   0.458   0.000   0.000  298.85  200.50  108.23   92.27    0.00    0.00 -99.000 -99.000 -99.000   0.088   0.069   0.061   0.042   0.033   0.033   0.029   0.057   0.045   0.217   0.061
   15 169    93   8.00  17.00   9.00 -99.000   1.486   1.318   0.170   2.788   2.618   0.170   0.000   0.000  300.34  203.29  110.85   92.44    0.00    0.00 -99.000 -99.000 -99.000   0.036   0.026   0.022   0.015   0.012   0.013   0.010   0.020   0.016   0.262   0.061
   15 170    94  15.00  15.00  10.00 -99.000   2.739   2.426   0.317   1.455   1.138   0.317   0.000   0.000  303.08  204.75  111.99   92.76    0.00    0.00 -99.000 -99.000 -99.000   0.066   0.047   0.040   0.029   0.022   0.024   0.020   0.039   0.031   0.114   0.062
   15 171    95  14.00  15.00   9.00 -99.000   2.530   2.238   0.296   1.292   0.996   0.296   0.000   0.000  305.61  206.04  112.98   93.05    0.00    0.00 -99.000 -99.000 -99.000   0.057   0.043   0.038   0.027   0.021   0.023   0.019   0.037   0.029   0.100   0.062
   15 172    96  14.00  17.00   9.00 -99.000   2.603   2.298   0.308   1.417   1.110   0.308   0.000   0.000  308.21  207.46  114.09   93.36    0.00    0.00 -99.000 -99.000 -99.000   0.057   0.044   0.039   0.029   0.023   0.024   0.021   0.039   0.031   0.111   0.062
   15 173    97  14.00  20.00  11.00 -99.000   2.761   2.434   0.330   1.949   1.619   0.330   0.000   0.000  310.97  209.40  115.71   93.69    0.00    0.00 -99.000 -99.000 -99.000   0.069   0.048   0.041   0.030   0.023   0.025   0.021   0.040   0.032   0.162   0.062
   15 174    98  19.00  16.00   9.00 -99.000   3.490   3.072   0.423   2.572   2.149   0.423   0.000   0.000  314.46  211.98  117.86   94.11    0.00    0.00 -99.000 -99.000 -99.000   0.094   0.063   0.052   0.037   0.029   0.031   0.026   0.050   0.040   0.215   0.062
   15 175    99  22.00  19.00   8.00 -99.000   4.173   3.673   0.505   2.054   1.548   0.505   0.000   0.000  318.63  214.03  119.41   94.62    0.00    0.00 -99.000 -99.000 -99.000   0.101   0.074   0.064   0.046   0.036   0.039   0.033   0.063   0.049   0.155   0.063
   15 176   100  22.00  21.00   6.00 -99.000   4.209   3.694   0.520   3.613   3.093   0.520   0.000   0.000  322.84  217.64  122.50   95.14    0.00    0.00 -99.000 -99.000 -99.000   0.098   0.075   0.067   0.048   0.038   0.041   0.034   0.066   0.052   0.309   0.063
   15 177   101  24.00  24.00   8.00 -99.000   4.863   4.255   0.614   4.895   4.281   0.614   0.000   0.000  327.70  222.54  126.79   95.75    0.00    0.00 -99.000 -99.000 -99.000   0.505   0.067   0.021   0.008   0.004   0.003   0.002   0.002   0.001   0.428   0.063
   15 178   102  13.00  22.00  13.00 -99.000   2.679   2.336   0.345   5.848   5.502   0.345   0.000   0.000  330.38  228.39  132.29   96.10    0.00    0.00 -99.000 -99.000 -99.000   0.279   0.040   0.013   0.005   0.003   0.002   0.001   0.001   0.001   0.550   0.063
   15 179   103  24.00  22.00  13.00 -99.000   4.945   4.297   0.654   2.892   2.238   0.654   0.000   0.000  335.33  231.28  134.53   96.75    0.00    0.00 -99.000 -99.000 -99.000   0.518   0.081   0.027   0.010   0.005   0.004   0.003   0.003   0.002   0.224   0.063
   15 180   104  23.00  25.00  12.00 -99.000   4.880   4.222   0.663   3.941   3.278   0.663   0.000   0.000  340.21  235.22  137.80   97.41    0.00    0.00 -99.000 -99.000 -99.000   0.516   0.088   0.029   0.011   0.006   0.005   0.003   0.003   0.002   0.328   0.063
   15 181   105  27.00  29.00  12.00 -99.000   6.012   5.178   0.839   5.480   4.756   0.724   0.000   0.000  346.22  240.70  142.56   98.14    0.00    0.00 -99.000 -99.000 -99.000   0.551   0.103   0.035   0.013   0.007   0.005   0.003   0.004   0.002   0.476   0.055
   15 182   106  28.00  28.00  13.00 -99.000   6.211   5.324   0.893   7.722   7.088   0.634   0.000   0.000  352.43  248.42  149.65   98.77    0.00    0.00 -99.000 -99.000 -99.000   0.467   0.098   0.034   0.013   0.007   0.005   0.003   0.004   0.002   0.709   0.052
   15 183   107  29.00  29.00  14.00 -99.000   6.560   5.593   0.973   6.985   6.436   0.550   0.000   0.000  358.99  255.41  156.08   99.32    0.00    0.00 -99.000 -99.000 -99.000   0.392   0.091   0.032   0.013   0.006   0.005   0.003   0.004   0.002   0.644   0.051
   15 184   108  23.00  31.00  14.00 -99.000   5.325   4.514   0.816   7.130   6.639   0.492   0.000   0.000  364.31  262.54  162.72   99.81    0.00    0.00 -99.000 -99.000 -99.000   0.343   0.085   0.031   0.012   0.006   0.005   0.003   0.004   0.002   0.664   0.051
   15 185   109  27.00  32.00  16.00 -99.000   6.419   5.408   1.016   6.829   6.377   0.451   0.000   0.000  370.73  269.37  169.10  100.27    0.00    0.00 -99.000 -99.000 -99.000   0.311   0.079   0.029   0.011   0.006   0.005   0.003   0.004   0.002   0.638   0.048
   15 186   110  27.00  33.00  17.00 -99.000   6.540   5.474   1.072   6.370   5.954   0.416   0.000   0.000  377.27  275.74  175.05  100.68    0.00    0.00 -99.000 -99.000 -99.000   0.283   0.073   0.028   0.011   0.006   0.005   0.003   0.004   0.002   0.595   0.044
   15 187   111  23.00  28.00  17.00 -99.000   5.270   4.410   0.865   6.223   5.839   0.384   0.000   0.000  382.54  281.96  180.89  101.07    0.00    0.00 -99.000 -99.000 -99.000   0.258   0.069   0.027   0.010   0.005   0.005   0.003   0.004   0.002   0.584   0.035
   15 188   112  26.00  33.00  16.00 -99.000   6.252   5.226   1.031   4.407   3.873   0.534   0.000   0.000  388.80  286.37  184.77  101.60    0.00    0.00 -99.000 -99.000 -99.000   0.414   0.065   0.026   0.010   0.005   0.005   0.003   0.004   0.002   0.387   0.024
   15 189   113  16.00  21.00  13.00 -99.000   3.270   2.730   0.544   6.456   5.912   0.544   0.000   0.000  392.07  292.82  190.68  102.14    0.00    0.00 -99.000 -99.000 -99.000   0.472   0.039   0.015   0.006   0.003   0.003   0.002   0.003   0.001   0.591   0.024
   15 190   114  17.00  19.00   8.00 -99.000   3.247   2.704   0.546   2.417   1.871   0.546   0.000   0.000  395.31  295.24  192.55  102.69    0.00    0.00 -99.000 -99.000 -99.000   0.483   0.035   0.013   0.005   0.003   0.002   0.002   0.002   0.001   0.187   0.028
   15 191   115  29.00  22.00   7.00 -99.000   5.714   4.749   0.971   3.114   2.194   0.920   0.000   0.000  401.03  298.35  194.74  103.61    0.00    0.00 -99.000 -99.000 -99.000   0.805   0.064   0.024   0.009   0.005   0.004   0.003   0.004   0.002   0.219   0.027
   15 192   116  26.00  28.00   8.00 -99.000   5.574   4.623   0.957   5.299   4.505   0.793   0.000   0.000  406.60  303.65  199.25  104.40    0.00    0.00 -99.000 -99.000 -99.000   0.680   0.063   0.023   0.009   0.005   0.004   0.003   0.004   0.002   0.451   0.026
   15 193   117  24.00  27.00  13.00 -99.000   5.288   4.374   0.919   7.068   6.427   0.641   0.000   0.000  411.89  310.72  205.68  105.04    0.00    0.00 -99.000 -99.000 -99.000   0.531   0.060   0.023   0.009   0.005   0.004   0.003   0.004   0.002   0.643   0.014
   15 194   118  10.00  21.00  15.00 -99.000   2.080   1.714   0.367   4.888   4.520   0.367   0.000   0.000  413.97  315.61  210.20  105.41    0.00    0.00 -99.000 -99.000 -99.000   0.297   0.038   0.014   0.006   0.003   0.003   0.002   0.003   0.001   0.452   0.009
   15 195   119  16.00  25.00  15.00 -99.000   3.498   2.871   0.631   1.587   1.046   0.541   0.000   0.000  417.47  317.19  211.24  105.95    0.00    0.00 -99.000 -99.000 -99.000   0.440   0.055   0.021   0.008   0.004   0.004   0.003   0.004   0.002   0.105   0.007
   15 196   120  23.00  27.00  16.00 -99.000   5.191   4.239   0.957   2.994   2.503   0.491   0.000   0.000  422.66  320.19  213.74  106.44    0.00    0.00 -99.000 -99.000 -99.000   0.391   0.054   0.021   0.008   0.004   0.004   0.003   0.004   0.002   0.250   0.007
   15 197   121  26.00  31.00  13.00 -99.000   6.007   4.875   1.136   3.936   3.494   0.442   0.000   0.000  428.66  324.12  217.24  106.89    0.00    0.00 -99.000 -99.000 -99.000   0.343   0.053   0.020   0.008   0.004   0.004   0.003   0.004   0.002   0.349   0.006
   15 198   122  23.00  33.00  15.00 -99.000   5.518   4.446   1.077   5.677   5.270   0.407   0.000   0.000  434.18  329.80  222.51  107.29    0.00    0.00 -99.000 -99.000 -99.000   0.311   0.052   0.020   0.008   0.004   0.004   0.002   0.004   0.002   0.527   0.004
   15 199   123  16.00  29.00  14.00 -99.000   3.645   2.912   0.736   4.373   3.997   0.376   0.000   0.000  437.83  334.17  226.51  107.67    0.00    0.00 -99.000 -99.000 -99.000   0.283   0.050   0.019   0.008   0.004   0.003   0.002   0.004   0.002   0.400   0.002
   15 200   124  16.00  28.00  16.00 -99.000   3.663   2.894   0.773   2.701   2.353   0.348   0.000   0.000  441.49  336.87  228.86  108.02    0.00    0.00 -99.000 -99.000 -99.000   0.258   0.049   0.018   0.007   0.004   0.003   0.002   0.004   0.002   0.235   0.001
   15 201   125  19.00  28.00  18.00 -99.000   4.423   3.446   0.980   2.042   1.718   0.324   0.000   0.000  445.91  338.92  230.58  108.34    0.00    0.00 -99.000 -99.000 -99.000   0.235   0.048   0.018   0.007   0.004   0.003   0.002   0.004   0.002   0.172   0.001
   15 202   126  26.00  32.00  16.00 -99.000   6.246   4.784   1.466   1.767   1.465   0.302   0.000   0.000  452.16  340.68  232.04  108.64    0.00    0.00 -99.000 -99.000 -99.000   0.214   0.048   0.018   0.007   0.004   0.003   0.002   0.004   0.002   0.147   0.001
   15 203   127  25.00  34.00  15.00 -99.000   6.107   4.577   1.534   2.669   2.387   0.282   0.000   0.000  458.27  343.35  234.43  108.92    0.00    0.00 -99.000 -99.000 -99.000   0.194   0.047   0.018   0.007   0.004   0.003   0.002   0.004   0.002   0.239   0.001
   15 204   128  12.00  24.00  18.00 -99.000   2.685   1.960   0.727   2.508   2.200   0.308   0.000   0.000  460.95  345.86  236.63  109.23    0.00    0.00 -99.000 -99.000 -99.000   0.222   0.047   0.017   0.007   0.004   0.003   0.002   0.004   0.002   0.220   0.001
   15 205   129  21.00  29.00  14.00 -99.000   4.851   3.414   1.441   0.736   0.404   0.332   0.000   0.000  465.80  346.60  237.03  109.56    0.00    0.00 -99.000 -99.000 -99.000   0.247   0.047   0.017   0.007   0.004   0.003   0.002   0.004   0.002   0.040   0.000
   15 206   130  21.00  25.00  12.00 -99.000   4.569   3.095   1.478   1.581   1.271   0.310   0.000   0.000  470.37  348.18  238.30  109.87    0.00    0.00 -99.000 -99.000 -99.000   0.225   0.047   0.017   0.007   0.004   0.003   0.002   0.004   0.002   0.127   0.000
   15 207   131  26.00  23.00   8.00 -99.000   5.356   3.463   1.898   1.178   0.889   0.289   0.000   0.000  475.73  349.36  239.19  110.16    0.00    0.00 -99.000 -99.000 -99.000   0.204   0.046   0.017   0.007   0.003   0.003   0.002   0.004   0.002   0.089   0.000
   15 208   132  19.00  23.00  12.00 -99.000   4.068   2.502   1.569   1.311   0.906   0.404   0.000   0.000  479.80  350.67  240.10  110.57    0.00    0.00 -99.000 -99.000 -99.000   0.321   0.046   0.016   0.007   0.003   0.003   0.002   0.004   0.002   0.091   0.000
   15 209   133  17.00  22.00  12.00 -99.000   3.627   2.121   1.509   1.232   0.678   0.554   0.000   0.000  483.42  351.90  240.78  111.12    0.00    0.00 -99.000 -99.000 -99.000   0.471   0.046   0.016   0.007   0.003   0.003   0.002   0.004   0.002   0.068   0.001
   15 210   134  12.00  20.00   9.00 -99.000   2.445   1.341   1.106   1.126   0.544   0.582   0.000   0.000  485.87  353.02  241.32  111.70    0.00    0.00 -99.000 -99.000 -99.000   0.499   0.046   0.016   0.007   0.003   0.003   0.002   0.004   0.002   0.054   0.001
   15 211   135  21.00  21.00   7.00 -99.000   4.290   2.185   2.108   0.966   0.404   0.562   0.000   0.000  490.16  353.99  241.73  112.27    0.00    0.00 -99.000 -99.000 -99.000   0.479   0.045   0.016   0.007   0.003   0.003   0.002   0.004   0.002   0.040   0.001
   15 212   136  25.00  23.00   9.00 -99.000   5.362   2.534   2.831   1.058   0.556   0.502   0.000   0.000  495.52  355.05  242.28  112.77    0.00    0.00 -99.000 -99.000 -99.000   0.419   0.045   0.016   0.007   0.003   0.003   0.002   0.004   0.002   0.056   0.001
   15 213   137  10.00  20.00  13.00 -99.000   2.147   0.926   1.222   0.959   0.512   0.447   0.000   0.000  497.67  356.01  242.79  113.21    0.00    0.00 -99.000 -99.000 -99.000   0.365   0.045   0.016   0.007   0.003   0.003   0.002   0.004   0.002   0.051   0.000
   15 214   138  19.00  25.00  12.00 -99.000   4.341   1.632   2.711   0.517   0.111   0.407   0.000   0.000  502.01  356.53  242.90  113.62    0.00    0.00 -99.000 -99.000 -99.000   0.325   0.045   0.016   0.007   0.003   0.003   0.002   0.004   0.002   0.011   0.000
   15 215   139  26.00  28.00  11.00 -99.000   6.169   1.909   4.263   0.647   0.270   0.377   0.000   0.000  508.18  357.17  243.17  114.00    0.00    0.00 -99.000 -99.000 -99.000   0.296   0.044   0.016   0.007   0.003   0.003   0.002   0.004   0.002   0.027   0.000
   15 216   140  21.00  31.00  12.00 -99.000   5.266   1.176   4.091   0.474   0.123   0.350   0.000   0.000  513.44  357.65  243.30  114.35    0.00    0.00 -99.000 -99.000 -99.000   0.269   0.044   0.016   0.007   0.003   0.003   0.002   0.004   0.002   0.012   0.000
   15 217   141  24.00  29.00  13.00 -99.000   6.018   0.707   5.311   0.328   0.002   0.326   0.000   0.000  519.46  357.97  243.30  114.67    0.00    0.00 -99.000 -99.000 -99.000   0.245   0.044   0.016   0.007   0.003   0.003   0.002   0.004   0.002   0.000   0.000
[...]
   15 151    75  22.00  21.00   9.00 -99.000   4.432   3.227   1.210   1.585   0.375   1.210   0.000   0.000  230.87  129.99   31.05   98.94    0.00    0.00 -99.000 -99.000 -99.000   0.199   0.171   0.156   0.116   0.092   0.101   0.085   0.163   0.127   0.038   0.031
   15 152    76  21.00  26.00  11.00 -99.000   4.581   3.359   1.226   1.752   0.803   0.949   0.000   0.000  235.45  131.74   31.86   99.88    0.00    0.00 -99.000 -99.000 -99.000   0.762   0.113   0.037   0.014   0.007   0.006   0.003   0.004   0.002   0.080   0.031
   15 153    77  23.00  25.00  13.00 -99.000   5.042   3.640   1.406   1.991   1.126   0.865   0.000   0.000  240.49  133.73   32.98  100.75    0.00    0.00 -99.000 -99.000 -99.000   0.680   0.111   0.036   0.014   0.007   0.006   0.003   0.004   0.002   0.113   0.031
   15 154    78  27.00  28.00  12.00 -99.000   6.092   4.331   1.766   1.773   0.990   0.783   0.000   0.000  246.59  135.50   33.97  101.53    0.00    0.00 -99.000 -99.000 -99.000   0.601   0.109   0.036   0.014   0.007   0.006   0.003   0.004   0.002   0.099   0.031
   15 155    79  28.00  26.00  12.00 -99.000   6.170   4.341   1.834   2.220   1.506   0.714   0.000   0.000  252.76  137.72   35.48  102.25    0.00    0.00 -99.000 -99.000 -99.000   0.534   0.107   0.036   0.014   0.007   0.006   0.003   0.004   0.002   0.151   0.027
   15 156    80  28.00  28.00  15.00 -99.000   6.468   4.523   1.950   1.988   1.340   0.648   0.000   0.000  259.22  139.71   36.82  102.89    0.00    0.00 -99.000 -99.000 -99.000   0.471   0.105   0.035   0.014   0.007   0.006   0.003   0.004   0.002   0.134   0.026
   15 157    81  25.00  30.00  13.00 -99.000   5.817   4.058   1.763   2.092   1.364   0.728   0.000   0.000  265.04  141.80   38.18  103.62    0.00    0.00 -99.000 -99.000 -99.000   0.554   0.102   0.035   0.014   0.007   0.006   0.003   0.004   0.002   0.136   0.026
   15 158    82  24.00  26.00  16.00 -99.000   5.474   3.813   1.665   2.493   1.690   0.804   0.000   0.000  270.52  144.30   39.87  104.43    0.00    0.00 -99.000 -99.000 -99.000   0.633   0.100   0.034   0.014   0.007   0.006   0.003   0.004   0.002   0.169   0.032
   15 159    83   8.00  20.00  12.00 -99.000   1.642   1.111   0.533   1.582   1.049   0.533   0.000   0.000  272.16  145.88   40.92  104.96    0.00    0.00 -99.000 -99.000 -99.000   0.102   0.075   0.064   0.047   0.039   0.043   0.037   0.071   0.055   0.105   0.029
   15 160    84   6.00  13.00  11.00 -99.000   1.126   0.735   0.392   0.716   0.324   0.392   0.000   0.000  273.28  146.59   41.24  105.35    0.00    0.00 -99.000 -99.000 -99.000   0.084   0.057   0.047   0.033   0.027   0.030   0.026   0.049   0.039   0.032   0.033
   15 161    85   9.00  18.00  11.00 -99.000   1.807   1.174   0.634   0.694   0.060   0.634   0.000   0.000  275.09  147.29   41.30  105.98    0.00    0.00 -99.000 -99.000 -99.000   0.126   0.092   0.081   0.055   0.044   0.050   0.042   0.081   0.064   0.006   0.033
   15 162    86  16.00  22.00  14.00 -99.000   3.470   2.242   1.231   1.633   0.401   1.231   0.000   0.000  278.56  148.92   41.71  107.22    0.00    0.00 -99.000 -99.000 -99.000   0.235   0.180   0.158   0.110   0.086   0.097   0.083   0.159   0.124   0.040   0.033
   15 163    87  28.00  28.00  12.00 -99.000   6.427   4.122   2.310   3.248   0.938   2.310   0.000   0.000  284.99  152.17   42.64  109.53    0.00    0.00 -99.000 -99.000 -99.000   0.431   0.336   0.298   0.208   0.162   0.183   0.156   0.300   0.235   0.094   0.033
   15 164    88  20.00  25.00  14.00 -99.000   4.500   2.864   1.640   4.740   3.100   1.640   0.000   0.000  289.49  156.91   45.74  111.17    0.00    0.00 -99.000 -99.000 -99.000   0.346   0.236   0.205   0.142   0.110   0.126   0.107   0.206   0.161   0.310   0.033
   15 165    89  23.00  24.00  15.00 -99.000   5.189   3.276   1.916   3.647   1.731   1.916   0.000   0.000  294.68  160.56   47.48  113.08    0.00    0.00 -99.000 -99.000 -99.000   0.439   0.300   0.241   0.162   0.121   0.136   0.116   0.224   0.176   0.173   0.034
   15 166    90   9.00  16.00  13.00 -99.000   1.803   1.130   0.675   2.292   1.617   0.675   0.000   0.000  296.48  162.85   49.09  113.76    0.00    0.00 -99.000 -99.000 -99.000   0.148   0.112   0.092   0.061   0.043   0.046   0.039   0.075   0.059   0.162   0.034
   15 167    91  18.00  19.00  11.00 -99.000   3.692   2.300   1.396   1.617   0.222   1.396   0.000   0.000  300.17  164.47   49.31  115.15    0.00    0.00 -99.000 -99.000 -99.000   0.279   0.215   0.190   0.131   0.098   0.103   0.086   0.164   0.130   0.022   0.034
   15 168    92  21.00  19.00  10.00 -99.000   4.257   2.636   1.625   2.669   1.044   1.625   0.000   0.000  304.43  167.13   50.36  116.78    0.00    0.00 -99.000 -99.000 -99.000   0.308   0.242   0.215   0.153   0.117   0.125   0.105   0.201   0.159   0.104   0.034
   15 169    93   8.00  17.00   9.00 -99.000   1.561   0.961   0.602   1.877   1.276   0.602   0.000   0.000  305.99  169.01   51.63  117.38    0.00    0.00 -99.000 -99.000 -99.000   0.125   0.091   0.077   0.055   0.042   0.045   0.038   0.072   0.057   0.128   0.035
   15 170    94  15.00  15.00  10.00 -99.000   2.892   1.770   1.124   1.672   0.548   1.124   0.000   0.000  308.88  170.68   52.18  118.50    0.00    0.00 -99.000 -99.000 -99.000   0.232   0.167   0.142   0.102   0.080   0.086   0.072   0.136   0.108   0.055   0.035
   15 171    95  14.00  15.00   9.00 -99.000   2.665   1.623   1.044   1.559   0.515   1.044   0.000   0.000  311.55  172.24   52.70  119.55    0.00    0.00 -99.000 -99.000 -99.000   0.201   0.152   0.133   0.097   0.076   0.082   0.069   0.131   0.103   0.051   0.035
   15 172    96  14.00  17.00   9.00 -99.000   2.738   1.659   1.081   1.664   0.583   1.081   0.000   0.000  314.28  173.91   53.28  120.63    0.00    0.00 -99.000 -99.000 -99.000   0.201   0.156   0.139   0.101   0.080   0.086   0.072   0.138   0.109   0.058   0.036
   15 173    97  14.00  20.00  11.00 -99.000   2.904   1.750   1.156   2.036   0.880   1.156   0.000   0.000  317.19  175.94   54.16  121.78    0.00    0.00 -99.000 -99.000 -99.000   0.243   0.169   0.144   0.104   0.082   0.088   0.074   0.141   0.111   0.088   0.036
   15 174    98  19.00  16.00   9.00 -99.000   3.690   2.210   1.483   2.714   1.230   1.483   0.000   0.000  320.88  178.66   55.39  123.27    0.00    0.00 -99.000 -99.000 -99.000   0.329   0.221   0.183   0.131   0.103   0.110   0.092   0.175   0.139   0.123   0.036
   15 175    99  22.00  19.00   8.00 -99.000   4.405   2.638   1.771   2.673   0.902   1.771   0.000   0.000  325.28  181.33   56.29  125.04    0.00    0.00 -99.000 -99.000 -99.000   0.353   0.258   0.224   0.162   0.128   0.138   0.115   0.219   0.173   0.090   0.037
   15 176   100  22.00  21.00   6.00 -99.000   4.436   2.633   1.807   3.634   1.827   1.807   0.000   0.000  329.72  184.96   58.12  126.85    0.00    0.00 -99.000 -99.000 -99.000   0.340   0.261   0.231   0.168   0.133   0.143   0.120   0.229   0.181   0.183   0.037
   15 177   101  24.00  24.00   8.00 -99.000   5.121   3.009   2.116   3.762   2.675   1.087   0.000   0.000  334.84  188.73   60.79  127.93    0.00    0.00 -99.000 -99.000 -99.000   0.892   0.119   0.038   0.015   0.008   0.006   0.003   0.004   0.002   0.268   0.037
   15 178   102  13.00  22.00  13.00 -99.000   2.818   1.640   1.180   4.396   3.433   0.963   0.000   0.000  337.66  193.12   64.23  128.90    0.00    0.00 -99.000 -99.000 -99.000   0.773   0.116   0.037   0.014   0.007   0.006   0.003   0.004   0.002   0.343   0.037
   15 179   103  24.00  22.00  13.00 -99.000   5.196   2.992   2.208   2.238   1.399   0.839   0.000   0.000  342.85  195.36   65.62  129.74    0.00    0.00 -99.000 -99.000 -99.000   0.655   0.112   0.036   0.014   0.007   0.006   0.003   0.004   0.002   0.140   0.038
   15 180   104  23.00  25.00  12.00 -99.000   5.124   2.920   2.207   2.821   2.061   0.760   0.000   0.000  347.98  198.18   67.68  130.50    0.00    0.00 -99.000 -99.000 -99.000   0.578   0.109   0.036   0.014   0.007   0.006   0.003   0.004   0.002   0.206   0.035
   15 181   105  27.00  29.00  12.00 -99.000   6.306   3.562   2.748   3.720   3.036   0.684   0.000   0.000  354.28  201.90   70.72  131.18    0.00    0.00 -99.000 -99.000 -99.000   0.506   0.106   0.035   0.014   0.007   0.006   0.003   0.004   0.002   0.304   0.033
   15 182   106  28.00  28.00  13.00 -99.000   6.511   3.642   2.873   5.115   4.503   0.612   0.000   0.000  360.79  207.02   75.22  131.79    0.00    0.00 -99.000 -99.000 -99.000   0.439   0.102   0.034   0.014   0.007   0.005   0.003   0.004   0.002   0.450   0.032
   15 183   107  29.00  29.00  14.00 -99.000   6.874   3.803   3.075   4.611   4.067   0.544   0.000   0.000  367.67  211.63   79.29  132.34    0.00    0.00 -99.000 -99.000 -99.000   0.379   0.096   0.033   0.013   0.007   0.005   0.003   0.004   0.002   0.407   0.032
   15 184   108  23.00  31.00  14.00 -99.000   5.578   3.051   2.530   4.668   4.173   0.495   0.000   0.000  373.25  216.29   83.46  132.83    0.00    0.00 -99.000 -99.000 -99.000   0.337   0.091   0.032   0.013   0.007   0.005   0.003   0.004   0.002   0.417   0.032
   15 185   109  27.00  32.00  16.00 -99.000   6.723   3.634   3.093   4.444   3.986   0.458   0.000   0.000  379.97  220.74   87.45  133.29    0.00    0.00 -99.000 -99.000 -99.000   0.307   0.086   0.031   0.013   0.007   0.005   0.003   0.004   0.002   0.399   0.032
   15 186   110  27.00  33.00  17.00 -99.000   6.849   3.655   3.197   4.100   3.676   0.424   0.000   0.000  386.82  224.84   91.13  133.71    0.00    0.00 -99.000 -99.000 -99.000   0.280   0.081   0.030   0.012   0.007   0.005   0.003   0.004   0.002   0.368   0.032
   15 187   111  23.00  28.00  17.00 -99.000   5.517   2.943   2.577   3.912   3.518   0.394   0.000   0.000  392.33  228.75   94.64  134.11    0.00    0.00 -99.000 -99.000 -99.000   0.254   0.077   0.029   0.012   0.006   0.005   0.003   0.004   0.002   0.352   0.029
   15 188   112  26.00  33.00  16.00 -99.000   6.542   3.482   3.063   2.866   2.321   0.545   0.000   0.000  398.88  231.62   96.96  134.65    0.00    0.00 -99.000 -99.000 -99.000   0.411   0.074   0.028   0.011   0.006   0.005   0.003   0.004   0.002   0.232   0.028
   15 189   113  16.00  21.00  13.00 -99.000   3.439   1.825   1.616   4.437   3.521   0.916   0.000   0.000  402.32  236.05  100.48  135.57    0.00    0.00 -99.000 -99.000 -99.000   0.782   0.074   0.027   0.011   0.006   0.005   0.003   0.004   0.002   0.352   0.029
   15 190   114  17.00  19.00   8.00 -99.000   3.432   1.813   1.621   2.139   1.106   1.033   0.000   0.000  405.75  238.19  101.59  136.60    0.00    0.00 -99.000 -99.000 -99.000   0.900   0.074   0.027   0.011   0.006   0.005   0.003   0.004   0.002   0.111   0.031
   15 191   115  29.00  22.00   7.00 -99.000   6.031   3.174   2.862   2.220   1.289   0.931   0.000   0.000  411.78  240.41  102.88  137.53    0.00    0.00 -99.000 -99.000 -99.000   0.800   0.073   0.026   0.011   0.006   0.005   0.003   0.004   0.002   0.129   0.030
   15 192   116  26.00  28.00   8.00 -99.000   5.878   3.081   2.800   3.465   2.630   0.835   0.000   0.000  417.66  243.88  105.51  138.37    0.00    0.00 -99.000 -99.000 -99.000   0.706   0.072   0.026   0.011   0.006   0.005   0.003   0.004   0.002   0.263   0.028
   15 193   117  24.00  27.00  13.00 -99.000   5.569   2.906   2.667   4.448   3.725   0.723   0.000   0.000  423.23  248.32  109.24  139.09    0.00    0.00 -99.000 -99.000 -99.000   0.597   0.070   0.026   0.011   0.006   0.005   0.003   0.004   0.002   0.372   0.025
   15 194   118  10.00  21.00  15.00 -99.000   2.187   1.134   1.055   3.254   2.598   0.657   0.000   0.000  425.41  251.58  111.83  139.75    0.00    0.00 -99.000 -99.000 -99.000   0.535   0.067   0.025   0.010   0.006   0.005   0.003   0.004   0.002   0.260   0.018
   15 195   119  16.00  25.00  15.00 -99.000   3.680   1.892   1.791   1.057   0.431   0.626   0.000   0.000  429.09  252.64  112.26  140.37    0.00    0.00 -99.000 -99.000 -99.000   0.507   0.065   0.024   0.010   0.006   0.005   0.003   0.004   0.002   0.043   0.017
   15 196   120  23.00  27.00  16.00 -99.000   5.460   2.766   2.698   1.609   1.034   0.576   0.000   0.000  434.55  254.25  113.30  140.95    0.00    0.00 -99.000 -99.000 -99.000   0.457   0.064   0.024   0.010   0.006   0.005   0.003   0.004   0.002   0.103   0.016
   15 197   121  26.00  31.00  13.00 -99.000   6.318   3.140   3.181   2.035   1.509   0.525   0.000   0.000  440.87  256.28  114.81  141.47    0.00    0.00 -99.000 -99.000 -99.000   0.408   0.063   0.024   0.010   0.006   0.005   0.003   0.004   0.002   0.151   0.015
   15 198   122  23.00  33.00  15.00 -99.000   5.805   2.820   2.988   2.877   2.397   0.480   0.000   0.000  446.68  259.16  117.20  141.95    0.00    0.00 -99.000 -99.000 -99.000   0.364   0.062   0.024   0.010   0.005   0.005   0.003   0.004   0.002   0.240   0.013
   15 199   123  16.00  29.00  14.00 -99.000   3.836   1.816   2.023   2.955   2.515   0.440   0.000   0.000  450.51  262.11  119.72  142.39    0.00    0.00 -99.000 -99.000 -99.000   0.327   0.060   0.023   0.010   0.005   0.005   0.003   0.004   0.002   0.251   0.011
   15 200   124  16.00  28.00  16.00 -99.000   3.856   1.773   2.085   2.130   1.722   0.408   0.000   0.000  454.37  264.24  121.44  142.80    0.00    0.00 -99.000 -99.000 -99.000   0.298   0.059   0.023   0.009   0.005   0.005   0.003   0.004   0.002   0.172   0.010
   15 201   125  19.00  28.00  18.00 -99.000   4.655   2.082   2.576   1.719   1.340   0.379   0.000   0.000  459.03  265.96  122.78  143.18    0.00    0.00 -99.000 -99.000 -99.000   0.271   0.058   0.022   0.009   0.005   0.005   0.003   0.004   0.002   0.134   0.009
   15 202   126  26.00  32.00  16.00 -99.000   6.569   2.868   3.704   1.565   1.212   0.354   0.000   0.000  465.60  267.53  123.99  143.53    0.00    0.00 -99.000 -99.000 -99.000   0.247   0.057   0.022   0.009   0.005   0.005   0.003   0.004   0.002   0.121   0.009
   15 203   127  25.00  34.00  15.00 -99.000   6.417   2.725   3.694   2.408   2.077   0.330   0.000   0.000  472.01  269.93  126.07  143.86    0.00    0.00 -99.000 -99.000 -99.000   0.225   0.056   0.022   0.009   0.005   0.005   0.003   0.004   0.002   0.208   0.008
   15 204   128  12.00  24.00  18.00 -99.000   2.818   1.154   1.666   2.470   2.117   0.353   0.000   0.000  474.83  272.40  128.19  144.22    0.00    0.00 -99.000 -99.000 -99.000   0.249   0.055   0.022   0.009   0.005   0.005   0.003   0.004   0.002   0.212   0.008
   15 205   129  21.00  29.00  14.00 -99.000   5.097   1.963   3.136   0.803   0.430   0.374   0.000   0.000  479.93  273.21  128.62  144.59    0.00    0.00 -99.000 -99.000 -99.000   0.272   0.054   0.021   0.009   0.005   0.005   0.003   0.004   0.002   0.043   0.008
   15 206   130  21.00  25.00  12.00 -99.000   4.791   1.776   3.016   1.718   1.369   0.349   0.000   0.000  484.72  274.92  129.98  144.94    0.00    0.00 -99.000 -99.000 -99.000   0.247   0.053   0.021   0.009   0.005   0.005   0.003   0.004   0.002   0.137   0.007
   15 207   131  26.00  23.00   8.00 -99.000   5.600   1.989   3.614   1.367   1.041   0.325   0.000   0.000  490.32  276.29  131.03  145.27    0.00    0.00 -99.000 -99.000 -99.000   0.225   0.052   0.021   0.009   0.005   0.004   0.003   0.004   0.002   0.104   0.007
   15 208   132  19.00  23.00  12.00 -99.000   4.242   1.444   2.799   1.573   1.134   0.439   0.000   0.000  494.56  277.86  132.16  145.70    0.00    0.00 -99.000 -99.000 -99.000   0.339   0.052   0.021   0.009   0.005   0.004   0.003   0.004   0.002   0.113   0.007
   15 209   133  17.00  22.00  12.00 -99.000   3.784   1.239   2.546   1.285   0.699   0.587   0.000   0.000  498.34  279.15  132.86  146.29    0.00    0.00 -99.000 -99.000 -99.000   0.488   0.051   0.020   0.008   0.005   0.004   0.003   0.004   0.002   0.070   0.007
   15 210   134  12.00  20.00   9.00 -99.000   2.544   0.794   1.752   1.162   0.537   0.624   0.000   0.000  500.89  280.31  133.40  146.91    0.00    0.00 -99.000 -99.000 -99.000   0.527   0.051   0.020   0.008   0.005   0.004   0.003   0.004   0.002   0.054   0.007
   15 211   135  21.00  21.00   7.00 -99.000   4.449   1.317   3.134   1.000   0.386   0.614   0.000   0.000  505.34  281.31  133.78  147.53    0.00    0.00 -99.000 -99.000 -99.000   0.517   0.050   0.020   0.008   0.005   0.004   0.003   0.004   0.002   0.039   0.008
   15 212   136  25.00  23.00   9.00 -99.000   5.539   1.559   3.981   1.202   0.642   0.560   0.000   0.000  510.88  282.51  134.42  148.09    0.00    0.00 -99.000 -99.000 -99.000   0.464   0.050   0.020   0.008   0.004   0.004   0.003   0.004   0.002   0.064   0.007
   15 213   137  10.00  20.00  13.00 -99.000   2.207   0.589   1.619   1.249   0.739   0.510   0.000   0.000  513.08  283.76  135.16  148.60    0.00    0.00 -99.000 -99.000 -99.000   0.414   0.050   0.020   0.008   0.004   0.004   0.003   0.004   0.002   0.074   0.007
   15 214   138  19.00  25.00  12.00 -99.000   4.435   1.106   3.331   0.659   0.193   0.466   0.000   0.000  517.52  284.42  135.36  149.06    0.00    0.00 -99.000 -99.000 -99.000   0.371   0.049   0.020   0.008   0.004   0.004   0.003   0.004   0.002   0.019   0.007
   15 215   139  26.00  28.00  11.00 -99.000   6.255   1.440   4.817   0.960   0.528   0.432   0.000   0.000  523.77  285.38  135.88  149.50    0.00    0.00 -99.000 -99.000 -99.000   0.337   0.049   0.020   0.008   0.004   0.004   0.003   0.004   0.002   0.053   0.007
   15 216   140  21.00  31.00  12.00 -99.000   5.286   1.097   4.191   1.155   0.754   0.401   0.000   0.000  529.06  286.53  136.64  149.90    0.00    0.00 -99.000 -99.000 -99.000   0.306   0.049   0.020   0.008   0.004   0.004   0.003   0.004   0.002   0.075   0.006
   15 217   141  24.00  29.00  13.00 -99.000   5.967   1.086   4.882   1.012   0.639   0.373   0.000   0.000  535.03  287.55  137.28  150.27    0.00    0.00 -99.000 -99.000 -99.000   0.279   0.048   0.020   0.008   0.004   0.004   0.003   0.004   0.002   0.064   0.006
   15 218   142  25.00  33.00  13.00 -99.000   6.532   0.966   5.567   0.823   0.476   0.347   0.000   0.000  541.56  288.37  137.75  150.62    0.00    0.00 -99.000 -99.000 -99.000   0.254   0.048   0.019   0.008   0.004   0.004   0.003   0.004   0.002   0.048   0.006
   15 219   143  25.00  35.00  14.00 -99.000   6.751   0.787   5.966   0.779   0.455   0.324   0.000   0.000  548.31  289.15  138.21  150.94    0.00    0.00 -99.000 -99.000 -99.000   0.231   0.048   0.019   0.008   0.004   0.004   0.003   0.004   0.002   0.046   0.006
   15 220   144  22.00  34.00  15.00 -99.000   5.973   0.307   5.666   0.545   0.197   0.348   0.000   0.000  554.28  289.69  138.41  151.29    0.00    0.00 -99.000 -99.000 -99.000   0.255   0.047   0.019   0.008   0.004   0.004   0.003   0.004   0.002   0.020   0.006
   15 221   145  22.00  33.00  16.00 -99.000   6.017   0.000   6.017   0.385   0.016   0.369   0.000   0.000  560.30  290.08  138.42  151.66    0.00    0.00 -99.000 -99.000 -99.000   0.277   0.047   0.019   0.008   0.004   0.004   0.003   0.004   0.002   0.002   0.000
   15 222   146  18.00  30.00  17.00 -99.000   4.792   0.000   4.792   0.358   0.014   0.344   0.000   0.000  565.09  290.44  138.44  152.00    0.00    0.00 -99.000 -99.000 -99.000   0.252   0.047   0.019   0.008   0.004   0.004   0.003   0.004   0.002   0.001   0.000
   15 223   147  19.00  31.00  16.00 -99.000   5.072   0.000   5.072   0.331   0.010   0.321   0.000   0.000  570.16  290.77  138.45  152.32    0.00    0.00 -99.000 -99.000 -99.000   0.230   0.047   0.019   0.008   0.004   0.004   0.003   0.004   0.002   0.001   0.000
   15 224   148  21.00  33.00  14.00 -99.000   5.642   0.000   5.642   0.312   0.012   0.300   0.000   0.000  575.80  291.08  138.46  152.62    0.00    0.00 -99.000 -99.000 -99.000   0.209   0.046   0.019   0.008   0.004   0.004   0.003   0.004   0.002   0.001   0.000
