*GHG emissions output file

*DSSAT Cropping System Model Ver. 4.8.5.000 -release  OCT 27, 2025 22:35:44

*RUN   1        : 1                         WHAPS048 TUDU1501    1
 MODEL          : WHAPS048 - Wheat
 EXPERIMENT     : TUDU1501 WH
 DATA PATH      :
 TREATMENT  1   : 1                         WHAPS048
  
!               |---------- Daily (g/ha) ----------|------- Cumulative (kg/ha) --------|---- Cum CO2-equiv kg[CO2eq]/ha ---|
!               Soil CO2  Net CO2      N2O      CH4 Soil CO2  Net CO2      N2O      CH4  Net CO2      N2O      CH4    Total
!                g[C]/ha  g[C]/ha  g[N]/ha  g[C]/ha kg[C]/ha kg[C]/ha kg[N]/ha kg[C]/ha    CO2eq    CO2eq    CO2eq    CO2eq
@YEAR DOY   DAS   CO2GED   CO2END   N2OGED   CH4GED    CO2EC   CO2ENC    N2OEC    CH4EC    CCEQC    NCEQC    MCEQC    TCEQC
   15 077     1    11813     1156     0.06     0.00       12        1     0.00     0.00        4        0        0        4
   15 078     2    10011     1063     0.10     0.00       22        2     0.00     0.00        8        0        0        8
   15 079     3     7794      969     0.14     0.00       30        3     0.00     0.00       12        0        0       12
   15 080     4     5527      750     0.18     0.00       35        4     0.00     0.00       14        0        0       15
   15 081     5     3507      469     0.21     0.00       39        4     0.00     0.00       16        0        0       16
   15 082     6      726      188     0.24     0.00       39        5     0.00     0.00       17        0        0       17
   15 083     7       90       31     0.27     0.00       39        5     0.00     0.00       17        1        0       18
   15 084     8      107       63     0.30     0.00       40        5     0.00     0.00       17        1        0       18
   15 085     9      595      125     0.32     0.00       40        5     0.00     0.00       18        1        0       19
   15 086    10      702      188     0.35     0.00       41        5     0.00     0.00       18        1        0       19
   15 087    11     1613      281     0.36     0.00       42        5     0.00     0.00       19        1        0       21
   15 088    12     2663      469     0.39     0.00       45        6     0.00     0.00       21        1        0       22
   15 089    13     3592      563     0.41     0.00       49        6     0.00     0.00       23        2        0       25
   15 090    14     3071      438     0.37     0.00       52        7     0.00     0.00       25        2        0       27
   15 091    15     3608      500     0.28     0.00       55        7     0.00     0.00       27        2        0       28
   15 092    16     2357      344     0.26     0.00       58        8     0.00     0.00       28        2        0       30
   15 093    17     1163      219     0.20     0.00       59        8     0.00     0.00       29        2        0       31
   15 094    18       46        0     0.42     0.00       59        8     0.00     0.00       29        2        0       31
   15 095    19        0        0     0.27     0.00       59        8     0.01     0.00       29        2        0       31
   15 096    20        0        0     0.46     0.00       59        8     0.01     0.00       29        3        0       31
   15 097    21        0        0     0.55     0.00       59        8     0.01     0.00       29        3        0       32
   15 098    22        0        0     0.55     0.00       59        8     0.01     0.00       29        3        0       32
   15 099    23        0        0     0.79     0.00       59        8     0.01     0.00       29        3        0       32
   15 100    24       44       31     1.08     0.00       59        8     0.01     0.00       29        4        0       33
   15 101    25     2768      438     1.41     0.00       62        8     0.01     0.00       30        5        0       35
   15 102    26     6168      969     1.76     0.00       68        9     0.01     0.00       34        5        0       39
   15 103    27     9028     1500     2.11     0.00       77       11     0.01     0.00       39        6        0       46
   15 104    28    10496     1813     2.37     0.00       87       13     0.02     0.00       46        8        0       54
   15 105    29    10690     1938     2.50     0.00       98       15     0.02     0.00       53        9        0       62
   15 106    30    11346     2188     2.53     0.00      110       17     0.02     0.00       61       10        0       71
   15 107    31    12037     2531     2.50     0.00      122       19     0.02     0.00       71       11        0       82
   15 108    32    13022     2406     0.72     0.00      135       22     0.02     0.00       79       11        0       91
   15 109    33    11300     1875     1.66     0.00      146       24     0.03     0.00       86       12        0       98
   15 110    34     9394     1531     2.23     0.00      155       25     0.03     0.00       92       13        0      105
   15 111    35     6955     1250     2.08     0.00      162       26     0.03     0.00       96       14        0      111
   15 112    36     5039      969     1.91     0.00      167       27     0.03     0.00      100       15        0      115
   15 113    37     4862     1031     1.77     0.00      172       28     0.03     0.00      104       16        0      120
   15 114    38     4999     1125     1.65     0.00      177       29     0.04     0.00      108       17        0      125
   15 115    39     5796     1344     1.53     0.00      183       31     0.04     0.00      113       17        0      130
   15 116    40     6626     1563     1.39     0.00      190       32     0.04     0.00      119       18        0      137
   15 117    41     8032     2000     1.26     0.00      198       34     0.04     0.00      126       19        0      145
   15 118    42     9774     2156     1.10     0.00      207       36     0.04     0.00      134       19        0      153
   15 119    43    10566     2281     0.59     0.00      218       39     0.04     0.00      142       19        0      162
   15 120    44     9906     2063     0.90     0.00      228       41     0.04     0.00      150       20        0      170
   15 121    45     9497     2000     0.91     0.00      237       43     0.04     0.00      157       20        0      177
   15 122    46     6528     1719     0.30     0.00      244       45     0.04     0.00      163       20        0      184
   15 123    47     5503     1344     0.44     0.00      249       46     0.04     0.00      168       21        0      189
   15 124    48     6616     1844     0.27     0.00      256       48     0.04     0.00      175       21        0      196
   15 125    49    10131     2531     0.53     0.00      266       50     0.04     0.00      184       21        0      205
   15 126    50    12492     3219     0.45     0.00      279       53     0.05     0.00      196       21        0      218
   15 127    51    11986     3781     0.28     0.00      291       57     0.05     0.00      210       21        0      232
   15 128    52    13404     3938     0.52     0.00      304       61     0.05     0.00      225       22        0      246
   15 129    53    14092     4063     0.67     0.00      318       65     0.05     0.00      239       22        0      261
   15 130    54    12911     3875     0.55     0.00      331       69     0.05     0.00      254       22        0      276
   15 131    55    11260     3438     0.71     0.00      342       73     0.05     0.00      266       23        0      289
   15 132    56    11246     3750     0.71     0.00      353       76     0.05     0.00      280       23        0      303
   15 133    57    12047     4281     0.73     0.00      366       81     0.05     0.00      296       23        0      319
   15 134    58    12803     4500     0.60     0.00      378       85     0.05     0.00      312       24        0      336
   15 135    59    12398     4719     0.76     0.00      391       90     0.05     0.00      330       24        0      353
   15 136    60    11654     4594     0.76     0.00      402       94     0.05     0.00      346       24        0      371
   15 137    61    11265     4563     0.76     0.00      414       99     0.05     0.00      363       25        0      388
   15 138    62    10163     4156     0.76     0.00      424      103     0.05     0.00      378       25        0      403
   15 139    63     9308     3969     0.76     0.00      433      107     0.05     0.00      393       25        0      418
   15 140    64     9657     3844     0.28     0.00      443      111     0.05     0.00      407       25        0      433
   15 141    65     8661     3656     0.25     0.00      451      115     0.05     0.00      421       26        0      446
   15 142    66     8257     3344     0.38     0.00      460      118     0.05     0.00      433       26        0      459
   15 143    67     7583     2969     0.59     0.00      467      121     0.06     0.00      444       26        0      470
   15 144    68     6543     2594     0.48     0.00      474      124     0.06     0.00      453       26        0      479
   15 145    69     6073     2438     0.57     0.00      480      126     0.06     0.00      462       26        0      489
   15 146    70     7400     3031     0.72     0.00      487      129     0.06     0.00      473       27        0      500
   15 147    71     7849     3219     0.80     0.00      495      132     0.06     0.00      485       27        0      512
   15 148    72     7741     3188     0.77     0.00      503      135     0.06     0.00      497       28        0      524
   15 149    73     7850     3250     0.74     0.00      511      139     0.06     0.00      509       28        0      537
   15 150    74     8548     3688     0.71     0.00      519      142     0.06     0.00      522       28        0      551
   15 151    75     8576     3719     0.68     0.00      528      146     0.06     0.00      536       29        0      564
   15 152    76     9285     4125     0.65     0.00      537      150     0.06     0.00      551       29        0      580
   15 153    77    11416     5031     1.61     0.00      549      155     0.06     0.00      570       30        0      599
   15 154    78    12736     5813     2.26     0.00      561      161     0.07     0.00      591       31        0      622
   15 155    79    13443     6344     2.57     0.00      575      167     0.07     0.00      614       32        0      646
   15 156    80    13670     6781     2.67     0.00      588      174     0.07     0.00      639       33        0      672
   15 157    81    14128     7375     2.66     0.00      603      182     0.07     0.00      666       34        0      700
   15 158    82    14825     7625     2.30     0.00      617      189     0.08     0.00      694       35        0      730
   15 159    83    13980     7563     2.08     0.00      631      197     0.08     0.00      722       36        0      758
   15 160    84    15677     7094     0.64     0.00      647      204     0.08     0.00      748       37        0      785
   15 161    85    14404     6531     1.14     0.00      661      210     0.08     0.00      772       37        0      809
   15 162    86    12668     5969     1.29     0.00      674      216     0.08     0.00      794       38        0      832
   15 163    87    11731     5656     1.33     0.00      686      222     0.08     0.00      815       38        0      853
   15 164    88    11230     5625     1.14     0.00      697      228     0.08     0.00      835       39        0      874
   15 165    89    11697     5906     0.53     0.00      709      233     0.08     0.00      857       39        0      896
   15 166    90    12817     6844     0.40     0.00      722      240     0.08     0.00      882       39        0      921
   15 167    91    12935     7000     0.35     0.00      735      247     0.08     0.00      908       40        0      947
   15 168    92    13118     6750     0.57     0.00      748      254     0.09     0.00      932       40        0      972
   15 169    93    12175     6156     0.72     0.00      760      260     0.09     0.00      955       40        0      995
   15 170    94    10415     5594     0.25     0.00      770      266     0.09     0.00      976       40        0     1016
   15 171    95     9255     4875     0.46     0.00      779      271     0.09     0.00      993       41        0     1034
   15 172    96     8835     4594     0.56     0.00      788      275     0.09     0.00     1010       41        0     1051
   15 173    97     8445     4406     0.59     0.00      797      280     0.09     0.00     1026       41        0     1068
   15 174    98     8310     4594     0.19     0.00      805      284     0.09     0.00     1043       41        0     1084
   15 175    99     8257     4563     0.26     0.00      813      289     0.09     0.00     1060       41        0     1101
   15 176   100     8615     4656     0.42     0.00      822      294     0.09     0.00     1077       41        0     1119
   15 177   101     8958     4875     0.50     0.00      831      298     0.09     0.00     1095       42        0     1137
   15 178   102     9318     5250     0.46     0.00      840      304     0.09     0.00     1114       42        0     1156
   15 179   103     9378     5531     0.43     0.00      850      309     0.09     0.00     1135       42        0     1177
   15 180   104    10034     6031     0.40     0.00      860      315     0.09     0.00     1157       42        0     1199
   15 181   105    10601     6594     0.38     0.00      870      322     0.09     0.00     1181       42        0     1223
   15 182   106    11305     7219     0.36     0.00      882      329     0.09     0.00     1207       43        0     1250
   15 183   107    11305     7500     0.35     0.00      893      337     0.09     0.00     1235       43        0     1278
   15 184   108    11159     7625     1.79     0.00      904      344     0.09     0.00     1263       44        0     1307
   15 185   109    11114     7750     2.74     0.00      915      352     0.10     0.00     1291       45        0     1336
   15 186   110    11076     7969     3.25     0.00      926      360     0.10     0.00     1321       46        0     1367
   15 187   111    10862     7969     3.34     0.00      937      368     0.10     0.00     1350       48        0     1398
   15 188   112    10356     7813     2.88     0.00      947      376     0.11     0.00     1379       49        0     1428
   15 189   113    11317     8094     2.09     0.00      959      384     0.11     0.00     1408       50        0     1459
   15 190   114    11268     7469     1.69     0.00      970      391     0.11     0.00     1436       51        0     1487
   15 191   115     9669     6656     1.43     0.00      980      398     0.11     0.00     1460       52        0     1512
   15 192   116     8070     5781     1.22     0.00      988      404     0.11     0.00     1481       52        0     1534
   15 193   117     7017     5156     1.08     0.00      995      409     0.11     0.00     1500       53        0     1553
   15 194   118     5928     4563     0.96     0.00     1001      413     0.11     0.00     1517       53        0     1570
   15 195   119     5813     4469     0.81     0.00     1006      418     0.11     0.00     1533       54        0     1587
   15 196   120     6180     4844     0.72     0.00     1013      423     0.12     0.00     1551       54        0     1605
   15 197   121     6459     5125     0.64     0.00     1019      428     0.12     0.00     1570       54        0     1624
   15 198   122     6416     5219     0.58     0.00     1026      433     0.12     0.00     1589       55        0     1644
   15 199   123     6246     5125     0.52     0.00     1032      438     0.12     0.00     1608       55        0     1663
   15 200   124     6120     5156     0.48     0.00     1038      443     0.12     0.00     1627       55        0     1682
   15 201   125     5990     5125     0.45     0.00     1044      448     0.12     0.00     1646       55        0     1701
   15 202   126     5875     5094     0.42     0.00     1050      454     0.12     0.00     1664       56        0     1720
   15 203   127     5808     5063     0.40     0.00     1056      459     0.12     0.00     1683       56        0     1739
   15 204   128     5607     5000     0.38     0.00     1061      464     0.12     0.00     1701       56        0     1757
   15 205   129     5590     4875     0.35     0.00     1067      468     0.12     0.00     1719       56        0     1775
   15 206   130     5460     4813     0.35     0.00     1072      473     0.12     0.00     1737       56        0     1793
   15 207   131     5070     4500     0.34     0.00     1077      478     0.12     0.00     1753       56        0     1810
   15 208   132     4511     4063     0.34     0.00     1082      482     0.12     0.00     1768       57        0     1825
   15 209   133     4632     3875     0.30     0.00     1086      486     0.12     0.00     1782       57        0     1839
   15 210   134     4454     3719     0.30     0.00     1091      489     0.12     0.00     1796       57        0     1853
   15 211   135     4071     3375     0.30     0.00     1095      493     0.12     0.00     1809       57        0     1865
   15 212   136     3693     3094     0.31     0.00     1099      496     0.12     0.00     1820       57        0     1877
   15 213   137     3609     3125     0.31     0.00     1102      499     0.12     0.00     1831       57        0     1889
   15 214   138     3466     3000     0.32     0.00     1106      502     0.12     0.00     1842       57        0     1900
   15 215   139     3492     3063     0.32     0.00     1109      505     0.12     0.00     1854       58        0     1911
   15 216   140     3697     3313     0.32     0.00     1113      508     0.12     0.00     1866       58        0     1923
   15 217   141     4019     3563     0.32     0.00     1117      512     0.12     0.00     1879       58        0     1937
   15 218   142     4214     3844     0.32     0.00     1121      516     0.12     0.00     1893       58        0     1951
   15 219   143     4497     4125     0.32     0.00     1126      520     0.12     0.00     1908       58        0     1966
   15 220   144     4745     4344     0.32     0.00     1130      524     0.12     0.00     1924       58        0     1982
   15 221   145     5181     4688     0.31     0.00     1136      529     0.12     0.00     1941       58        0     2000
   15 222   146     5265     4750     0.31     0.00     1141      534     0.13     0.00     1959       59        0     2017
   15 223   147     5321     4875     0.31     0.00     1146      539     0.13     0.00     1977       59        0     2035
   15 224   148     5281     4875     0.32     0.00     1151      543     0.13     0.00     1994       59        0     2053

*DSSAT Cropping System Model Ver. 4.8.5.000 -release  OCT 27, 2025 22:35:44

*RUN   2        : 2                         WHAPS048 TUDU1501    2
 MODEL          : WHAPS048 - Wheat
 EXPERIMENT     : TUDU1501 WH
 DATA PATH      :
 TREATMENT  2   : 2                         WHAPS048
  
!               |---------- Daily (g/ha) ----------|------- Cumulative (kg/ha) --------|---- Cum CO2-equiv kg[CO2eq]/ha ---|
!               Soil CO2  Net CO2      N2O      CH4 Soil CO2  Net CO2      N2O      CH4  Net CO2      N2O      CH4    Total
!                g[C]/ha  g[C]/ha  g[N]/ha  g[C]/ha kg[C]/ha kg[C]/ha kg[N]/ha kg[C]/ha    CO2eq    CO2eq    CO2eq    CO2eq
@YEAR DOY   DAS   CO2GED   CO2END   N2OGED   CH4GED    CO2EC   CO2ENC    N2OEC    CH4EC    CCEQC    NCEQC    MCEQC    TCEQC
   15 077     1    11813     1156     0.06     0.00       12        1     0.00     0.00        4        0        0        4
   15 078     2    10011     1063     0.10     0.00       22        2     0.00     0.00        8        0        0        8
   15 079     3     7794      969     0.14     0.00       30        3     0.00     0.00       12        0        0       12
   15 080     4     5527      750     0.18     0.00       35        4     0.00     0.00       14        0        0       15
   15 081     5     3507      469     0.21     0.00       39        4     0.00     0.00       16        0        0       16
   15 082     6      726      188     0.24     0.00       39        5     0.00     0.00       17        0        0       17
   15 083     7       90       31     0.27     0.00       39        5     0.00     0.00       17        1        0       18
   15 084     8      107       63     0.30     0.00       40        5     0.00     0.00       17        1        0       18
   15 085     9      595      125     0.32     0.00       40        5     0.00     0.00       18        1        0       19
   15 086    10      702      188     0.35     0.00       41        5     0.00     0.00       18        1        0       19
   15 087    11     1613      281     0.36     0.00       42        5     0.00     0.00       19        1        0       21
   15 088    12     2663      469     0.39     0.00       45        6     0.00     0.00       21        1        0       22
   15 089    13     3592      563     0.41     0.00       49        6     0.00     0.00       23        2        0       25
   15 090    14     3071      438     0.37     0.00       52        7     0.00     0.00       25        2        0       27
   15 091    15     3608      500     0.28     0.00       55        7     0.00     0.00       27        2        0       28
   15 092    16     2357      344     0.26     0.00       58        8     0.00     0.00       28        2        0       30
   15 093    17     1163      219     0.20     0.00       59        8     0.00     0.00       29        2        0       31
   15 094    18       46        0     0.42     0.00       59        8     0.00     0.00       29        2        0       31
   15 095    19        0        0     0.27     0.00       59        8     0.01     0.00       29        2        0       31
   15 096    20        0        0     0.46     0.00       59        8     0.01     0.00       29        3        0       31
   15 097    21        0        0     0.55     0.00       59        8     0.01     0.00       29        3        0       32
   15 098    22        0        0     0.55     0.00       59        8     0.01     0.00       29        3        0       32
   15 099    23        0        0     0.87     0.00       59        8     0.01     0.00       29        4        0       32
   15 100    24       44       31     1.15     0.00       59        8     0.01     0.00       29        4        0       33
   15 101    25     2768      438     1.42     0.00       62        8     0.01     0.00       30        5        0       35
   15 102    26     6168      969     1.68     0.00       68        9     0.01     0.00       34        6        0       39
   15 103    27     9028     1500     1.91     0.00       77       11     0.01     0.00       39        6        0       46
   15 104    28    10496     1813     2.08     0.00       87       13     0.02     0.00       46        7        0       53
   15 105    29    10690     1938     2.14     0.00       98       15     0.02     0.00       53        8        0       62
   15 106    30    11346     2188     2.14     0.00      110       17     0.02     0.00       61        9        0       71
   15 107    31    12037     2531     2.10     0.00      122       19     0.02     0.00       71       10        0       81
   15 108    32    13022     2406     0.60     0.00      135       22     0.02     0.00       79       11        0       90
   15 109    33    11300     1875     1.38     0.00      146       24     0.02     0.00       86       11        0       98
   15 110    34     9394     1531     1.85     0.00      155       25     0.03     0.00       92       12        0      104
   15 111    35     6955     1250     1.72     0.00      162       26     0.03     0.00       96       13        0      109
   15 112    36     5039      969     1.59     0.00      167       27     0.03     0.00      100       14        0      114
   15 113    37     4862     1031     1.47     0.00      172       28     0.03     0.00      104       14        0      118
   15 114    38     4999     1125     1.37     0.00      177       29     0.03     0.00      108       15        0      123
   15 115    39     5796     1344     1.28     0.00      183       31     0.03     0.00      113       16        0      129
   15 116    40     6626     1563     1.16     0.00      190       32     0.03     0.00      119       16        0      135
   15 117    41     8031     2000     1.06     0.00      198       34     0.04     0.00      126       17        0      143
   15 118    42     9772     2156     0.94     0.00      207       36     0.04     0.00      134       17        0      151
   15 119    43    10560     2281     0.50     0.00      218       39     0.04     0.00      142       17        0      160
   15 120    44     9902     2063     0.78     0.00      228       41     0.04     0.00      150       18        0      168
   15 121    45     9493     2000     0.79     0.00      237       43     0.04     0.00      157       18        0      175
   15 122    46     6528     1719     0.26     0.00      244       45     0.04     0.00      163       18        0      182
   15 123    47     5503     1344     0.41     0.00      249       46     0.04     0.00      168       18        0      187
   15 124    48     6630     1844     0.27     0.00      256       48     0.04     0.00      175       19        0      194
   15 125    49    10152     2531     0.53     0.00      266       50     0.04     0.00      184       19        0      203
   15 126    50    12517     3188     0.45     0.00      279       53     0.04     0.00      196       19        0      215
   15 127    51    12040     3781     0.28     0.00      291       57     0.04     0.00      210       19        0      229
   15 128    52    13460     3938     0.52     0.00      304       61     0.04     0.00      224       19        0      244
   15 129    53    14140     4031     0.69     0.00      318       65     0.04     0.00      239       20        0      259
   15 130    54    12933     3875     0.56     0.00      331       69     0.04     0.00      253       20        0      273
   15 131    55    11269     3438     0.74     0.00      342       73     0.04     0.00      266       20        0      286
   15 132    56    11280     3750     0.76     0.00      354       76     0.04     0.00      280       21        0      301
   15 133    57    12053     4281     0.77     0.00      366       81     0.04     0.00      296       21        0      317
   15 134    58    12800     4469     0.64     0.00      379       85     0.05     0.00      312       21        0      333
   15 135    59    12459     4719     0.82     0.00      391       90     0.05     0.00      329       22        0      351
   15 136    60    11664     4594     0.82     0.00      403       94     0.05     0.00      346       22        0      368
   15 137    61    11275     4563     0.83     0.00      414       99     0.05     0.00      363       22        0      385
   15 138    62    10154     4156     0.83     0.00      424      103     0.05     0.00      378       23        0      401
   15 139    63     9294     3969     0.83     0.00      433      107     0.05     0.00      393       23        0      416
   15 140    64     9648     3844     0.30     0.00      443      111     0.05     0.00      407       23        0      430
   15 141    65     8655     3656     0.27     0.00      452      115     0.05     0.00      420       24        0      444
   15 142    66     8254     3375     0.42     0.00      460      118     0.05     0.00      433       24        0      456
   15 143    67     7581     2938     0.64     0.00      468      121     0.05     0.00      443       24        0      467
   15 144    68     6541     2625     0.52     0.00      474      123     0.05     0.00      453       24        0      477
   15 145    69     6070     2406     0.62     0.00      480      126     0.05     0.00      462       25        0      486
   15 146    70     7414     3031     0.78     0.00      488      129     0.05     0.00      473       25        0      498
   15 147    71     7850     3219     0.87     0.00      495      132     0.05     0.00      485       25        0      510
   15 148    72     7741     3188     0.83     0.00      503      135     0.05     0.00      496       26        0      522
   15 149    73     7849     3281     0.80     0.00      511      139     0.06     0.00      509       26        0      535
   15 150    74     8549     3656     0.76     0.00      520      142     0.06     0.00      522       26        0      548
   15 151    75     8568     3750     0.73     0.00      528      146     0.06     0.00      536       27        0      563
   15 152    76     9276     4125     0.69     0.00      537      150     0.06     0.00      551       27        0      578
   15 153    77    11402     5031     1.52     0.00      549      155     0.06     0.00      569       28        0      597
   15 154    78    12729     5781     2.01     0.00      562      161     0.06     0.00      591       29        0      619
   15 155    79    13438     6344     2.22     0.00      575      167     0.06     0.00      614       30        0      644
   15 156    80    13668     6813     2.26     0.00      589      174     0.07     0.00      639       31        0      670
   15 157    81    14128     7375     2.23     0.00      603      181     0.07     0.00      666       32        0      698
   15 158    82    14803     7625     1.92     0.00      618      189     0.07     0.00      694       33        0      727
   15 159    83    13951     7500     1.74     0.00      632      197     0.07     0.00      721       34        0      755
   15 160    84    15642     7094     0.54     0.00      647      204     0.07     0.00      747       34        0      781
   15 161    85    14369     6531     0.98     0.00      662      210     0.07     0.00      771       34        0      806
   15 162    86    12647     5938     1.11     0.00      674      216     0.07     0.00      793       35        0      828
   15 163    87    11707     5656     1.15     0.00      686      222     0.08     0.00      814       35        0      849
   15 164    88    11205     5594     1.00     0.00      697      227     0.08     0.00      834       36        0      870
   15 165    89    11670     5906     0.47     0.00      709      233     0.08     0.00      856       36        0      892
   15 166    90    12792     6813     0.35     0.00      722      240     0.08     0.00      881       36        0      917
   15 167    91    12919     7000     0.31     0.00      735      247     0.08     0.00      907       36        0      943
   15 168    92    13111     6750     0.51     0.00      748      254     0.08     0.00      932       37        0      968
   15 169    93    12165     6156     0.65     0.00      760      260     0.08     0.00      954       37        0      991
   15 170    94    10409     5625     0.23     0.00      770      266     0.08     0.00      975       37        0     1012
   15 171    95     9250     4844     0.42     0.00      779      270     0.08     0.00      993       37        0     1030
   15 172    96     8830     4594     0.52     0.00      788      275     0.08     0.00     1009       37        0     1047
   15 173    97     8441     4438     0.55     0.00      797      280     0.08     0.00     1026       38        0     1064
   15 174    98     8306     4594     0.18     0.00      805      284     0.08     0.00     1043       38        0     1080
   15 175    99     8253     4531     0.25     0.00      813      289     0.08     0.00     1059       38        0     1097
   15 176   100     8611     4688     0.40     0.00      822      293     0.08     0.00     1076       38        0     1115
   15 177   101     8956     4844     0.48     0.00      831      298     0.08     0.00     1094       38        0     1133
   15 178   102     9319     5281     0.44     0.00      840      303     0.08     0.00     1114       39        0     1152
   15 179   103     9383     5531     0.41     0.00      850      309     0.08     0.00     1134       39        0     1173
   15 180   104    10044     6031     0.39     0.00      860      315     0.08     0.00     1156       39        0     1195
   15 181   105    10618     6594     0.37     0.00      870      322     0.08     0.00     1180       39        0     1219
   15 182   106    11318     7219     0.36     0.00      882      329     0.08     0.00     1207       39        0     1246
   15 183   107    11308     7500     0.35     0.00      893      336     0.08     0.00     1234       39        0     1274
   15 184   108    11155     7625     1.54     0.00      904      344     0.09     0.00     1262       40        0     1302
   15 185   109    11104     7750     2.29     0.00      915      352     0.09     0.00     1291       41        0     1332
   15 186   110    11054     7938     2.70     0.00      926      360     0.09     0.00     1320       42        0     1362
   15 187   111    10835     7969     2.87     0.00      937      368     0.09     0.00     1349       44        0     1393
   15 188   112    10323     7781     2.84     0.00      947      375     0.10     0.00     1378       45        0     1423
   15 189   113    11273     8063     2.60     0.00      959      383     0.10     0.00     1407       46        0     1454
   15 190   114    11222     7469     2.33     0.00      970      391     0.10     0.00     1435       47        0     1482
   15 191   115     9631     6625     2.07     0.00      979      398     0.10     0.00     1459       48        0     1507
   15 192   116     8037     5719     1.83     0.00      987      403     0.11     0.00     1480       49        0     1529
   15 193   117     6979     5156     1.64     0.00      994      408     0.11     0.00     1499       50        0     1549
   15 194   118     5887     4531     1.48     0.00     1000      413     0.11     0.00     1515       51        0     1566
   15 195   119     5771     4438     1.25     0.00     1006      417     0.11     0.00     1532       51        0     1583
   15 196   120     6133     4813     1.11     0.00     1012      422     0.11     0.00     1549       52        0     1601
   15 197   121     6406     5094     0.99     0.00     1019      427     0.11     0.00     1568       52        0     1620
   15 198   122     6364     5156     0.88     0.00     1025      432     0.11     0.00     1587       53        0     1640
   15 199   123     6197     5125     0.78     0.00     1031      438     0.11     0.00     1606       53        0     1659
   15 200   124     6073     5125     0.70     0.00     1037      443     0.11     0.00     1625       53        0     1678
   15 201   125     5945     5094     0.63     0.00     1043      448     0.11     0.00     1643       54        0     1697
   15 202   126     5832     5031     0.58     0.00     1049      453     0.12     0.00     1662       54        0     1716
   15 203   127     5766     5063     0.53     0.00     1055      458     0.12     0.00     1680       54        0     1735
   15 204   128     5570     4938     0.49     0.00     1060      463     0.12     0.00     1699       54        0     1753
   15 205   129     5556     4875     0.44     0.00     1066      468     0.12     0.00     1716       55        0     1771
   15 206   130     5427     4781     0.42     0.00     1071      472     0.12     0.00     1734       55        0     1789
   15 207   131     5041     4500     0.41     0.00     1076      477     0.12     0.00     1750       55        0     1806
   15 208   132     4486     4031     0.39     0.00     1081      481     0.12     0.00     1765       55        0     1821
   15 209   133     4609     3875     0.34     0.00     1086      485     0.12     0.00     1779       55        0     1835
   15 210   134     4432     3688     0.34     0.00     1090      489     0.12     0.00     1793       56        0     1849
   15 211   135     4051     3344     0.33     0.00     1094      492     0.12     0.00     1805       56        0     1861
   15 212   136     3675     3125     0.34     0.00     1098      495     0.12     0.00     1817       56        0     1873
   15 213   137     3592     3094     0.34     0.00     1101      498     0.12     0.00     1828       56        0     1884
   15 214   138     3449     3000     0.34     0.00     1105      501     0.12     0.00     1839       56        0     1895
   15 215   139     3476     3063     0.34     0.00     1108      504     0.12     0.00     1850       56        0     1907
   15 216   140     3681     3250     0.34     0.00     1112      507     0.12     0.00     1862       57        0     1919
   15 217   141     4008     3625     0.34     0.00     1116      511     0.12     0.00     1876       57        0     1932
   15 218   142     4209     3813     0.34     0.00     1120      515     0.12     0.00     1890       57        0     1946
   15 219   143     4492     4094     0.33     0.00     1125      519     0.12     0.00     1905       57        0     1962
   15 220   144     4740     4375     0.33     0.00     1129      523     0.12     0.00     1921       57        0     1978
   15 221   145     5176     4656     0.32     0.00     1135      528     0.12     0.00     1938       57        0     1995
   15 222   146     5260     4781     0.32     0.00     1140      533     0.12     0.00     1955       57        0     2013
   15 223   147     5316     4844     0.33     0.00     1145      538     0.12     0.00     1973       58        0     2031
   15 224   148     5276     4875     0.33     0.00     1150      543     0.12     0.00     1991       58        0     2049

*DSSAT Cropping System Model Ver. 4.8.5.000 -release  OCT 27, 2025 22:35:44

*RUN   3        : 3                         WHAPS048 TUDU1501    3
 MODEL          : WHAPS048 - Wheat
 EXPERIMENT     : TUDU1501 WH
 DATA PATH      :
 TREATMENT  3   : 3                         WHAPS048
  
!               |---------- Daily (g/ha) ----------|------- Cumulative (kg/ha) --------|---- Cum CO2-equiv kg[CO2eq]/ha ---|
!               Soil CO2  Net CO2      N2O      CH4 Soil CO2  Net CO2      N2O      CH4  Net CO2      N2O      CH4    Total
!                g[C]/ha  g[C]/ha  g[N]/ha  g[C]/ha kg[C]/ha kg[C]/ha kg[N]/ha kg[C]/ha    CO2eq    CO2eq    CO2eq    CO2eq
@YEAR DOY   DAS   CO2GED   CO2END   N2OGED   CH4GED    CO2EC   CO2ENC    N2OEC    CH4EC    CCEQC    NCEQC    MCEQC    TCEQC
   15 077     1    11813     1156     0.06     0.00       12        1     0.00     0.00        4        0        0        4
   15 078     2    10011     1063     0.10     0.00       22        2     0.00     0.00        8        0        0        8
   15 079     3     7794      969     0.14     0.00       30        3     0.00     0.00       12        0        0       12
   15 080     4     5527      750     0.18     0.00       35        4     0.00     0.00       14        0        0       15
   15 081     5     3507      469     0.21     0.00       39        4     0.00     0.00       16        0        0       16
   15 082     6      726      188     0.24     0.00       39        5     0.00     0.00       17        0        0       17
   15 083     7       90       31     0.27     0.00       39        5     0.00     0.00       17        1        0       18
   15 084     8      107       63     0.30     0.00       40        5     0.00     0.00       17        1        0       18
   15 085     9      595      125     0.32     0.00       40        5     0.00     0.00       18        1        0       19
   15 086    10      702      188     0.35     0.00       41        5     0.00     0.00       18        1        0       19
   15 087    11     1613      281     0.36     0.00       42        5     0.00     0.00       19        1        0       21
   15 088    12     2663      469     0.39     0.00       45        6     0.00     0.00       21        1        0       22
   15 089    13     3592      563     0.41     0.00       49        6     0.00     0.00       23        2        0       25
   15 090    14     3071      438     0.37     0.00       52        7     0.00     0.00       25        2        0       27
   15 091    15     3608      500     0.28     0.00       55        7     0.00     0.00       27        2        0       28
   15 092    16     2357      344     0.26     0.00       58        8     0.00     0.00       28        2        0       30
   15 093    17     1163      219     0.20     0.00       59        8     0.00     0.00       29        2        0       31
   15 094    18       46        0     0.42     0.00       59        8     0.00     0.00       29        2        0       31
   15 095    19        0        0     0.27     0.00       59        8     0.01     0.00       29        2        0       31
   15 096    20        0        0     0.46     0.00       59        8     0.01     0.00       29        3        0       31
   15 097    21        0        0     0.55     0.00       59        8     0.01     0.00       29        3        0       32
   15 098    22        0        0     0.55     0.00       59        8     0.01     0.00       29        3        0       32
   15 099    23        0        0     0.53     0.00       59        8     0.01     0.00       29        3        0       32
   15 100    24       44       31     0.53     0.00       59        8     0.01     0.00       29        4        0       32
   15 101    25     2768      438     0.52     0.00       62        8     0.01     0.00       30        4        0       34
   15 102    26     6168      969     0.52     0.00       68        9     0.01     0.00       34        4        0       38
   15 103    27     9028     1500     0.52     0.00       77       11     0.01     0.00       39        4        0       44
   15 104    28    10496     1813     0.52     0.00       87       13     0.01     0.00       46        5        0       51
   15 105    29    10690     1938     0.51     0.00       98       15     0.01     0.00       53        5        0       58
   15 106    30    11346     2188     0.51     0.00      110       17     0.01     0.00       61        5        0       66
   15 107    31    12038     2531     0.51     0.00      122       19     0.01     0.00       71        5        0       76
   15 108    32    12717     2500     0.14     0.00      134       22     0.01     0.00       80        5        0       85
   15 109    33    10978     1938     0.33     0.00      145       24     0.01     0.00       87        6        0       92
   15 110    34     9065     1594     0.47     0.00      154       25     0.01     0.00       93        6        0       98
   15 111    35     6711     1344     0.46     0.00      161       27     0.01     0.00       98        6        0      104
   15 112    36     4891     1031     0.46     0.00      166       28     0.01     0.00      101        6        0      108
   15 113    37     4684     1031     0.46     0.00      171       29     0.01     0.00      105        6        0      112
   15 114    38     4804     1156     0.47     0.00      175       30     0.01     0.00      109        7        0      116
   15 115    39     5554     1438     0.46     0.00      181       31     0.01     0.00      115        7        0      122
   15 116    40     6324     1656     0.45     0.00      187       33     0.02     0.00      121        7        0      128
   15 117    41     7640     2063     0.44     0.00      195       35     0.02     0.00      128        7        0      136
   15 118    42     9114     2344     0.42     0.00      204       37     0.02     0.00      137        7        0      144
   15 119    43     9762     2469     0.23     0.00      214       40     0.02     0.00      146        8        0      154
   15 120    44     9013     2281     0.39     0.00      223       42     0.02     0.00      154        8        0      162
   15 121    45     8655     2219     0.42     0.00      231       44     0.02     0.00      163        8        0      170
   15 122    46     5954     1844     0.14     0.00      237       46     0.02     0.00      169        8        0      177
   15 123    47     4990     1500     0.23     0.00      242       48     0.02     0.00      175        8        0      183
   15 124    48     6126     1969     0.14     0.00      249       50     0.02     0.00      182        8        0      190
   15 125    49     9366     2688     0.30     0.00      258       52     0.02     0.00      192        8        0      200
   15 126    50    11677     3438     0.26     0.00      270       56     0.02     0.00      204        8        0      213
   15 127    51    11564     3906     0.15     0.00      281       60     0.02     0.00      219        9        0      227
   15 128    52    12983     4031     0.30     0.00      294       64     0.02     0.00      234        9        0      242
   15 129    53    13547     4188     0.41     0.00      308       68     0.02     0.00      249        9        0      258
   15 130    54    12309     4031     0.29     0.00      320       72     0.02     0.00      264        9        0      273
   15 131    55    10989     3500     0.41     0.00      331       75     0.02     0.00      277        9        0      286
   15 132    56    11039     3813     0.42     0.00      342       79     0.02     0.00      291        9        0      300
   15 133    57    11955     4313     0.42     0.00      354       84     0.02     0.00      306       10        0      316
   15 134    58    12745     4500     0.29     0.00      367       88     0.02     0.00      323       10        0      333
   15 135    59    12871     4594     0.42     0.00      380       93     0.02     0.00      340       10        0      350
   15 136    60    11987     4531     0.44     0.00      392       97     0.02     0.00      356       10        0      367
   15 137    61    11555     4469     0.43     0.00      403      102     0.02     0.00      373       10        0      383
   15 138    62    10635     4094     0.43     0.00      414      106     0.02     0.00      388       11        0      398
   15 139    63    10035     3906     0.43     0.00      424      110     0.02     0.00      402       11        0      413
   15 140    64     9770     3813     0.14     0.00      434      113     0.02     0.00      416       11        0      427
   15 141    65     8729     3625     0.13     0.00      442      117     0.02     0.00      430       11        0      440
   15 142    66     8314     3375     0.21     0.00      451      120     0.02     0.00      442       11        0      453
   15 143    67     7658     2906     0.34     0.00      458      123     0.02     0.00      453       11        0      464
   15 144    68     6611     2594     0.27     0.00      465      126     0.02     0.00      462       11        0      473
   15 145    69     6146     2406     0.32     0.00      471      128     0.02     0.00      471       11        0      482
   15 146    70     7581     3000     0.41     0.00      479      131     0.02     0.00      482       12        0      493
   15 147    71     7941     3188     0.45     0.00      487      135     0.03     0.00      494       12        0      505
   15 148    72     7746     3188     0.44     0.00      494      138     0.03     0.00      505       12        0      517
   15 149    73     7874     3250     0.43     0.00      502      141     0.03     0.00      517       12        0      529
   15 150    74     8665     3656     0.42     0.00      511      145     0.03     0.00      531       12        0      543
   15 151    75     8740     3719     0.41     0.00      520      148     0.03     0.00      544       13        0      557
   15 152    76     9440     4031     0.40     0.00      529      152     0.03     0.00      559       13        0      572
   15 153    77    11280     5063     0.39     0.00      540      157     0.03     0.00      578       13        0      591
   15 154    78    12481     5719     0.39     0.00      553      163     0.03     0.00      599       13        0      612
   15 155    79    13162     6250     0.38     0.00      566      169     0.03     0.00      622       13        0      635
   15 156    80    13708     6688     0.38     0.00      580      176     0.03     0.00      646       13        0      660
   15 157    81    14591     7406     0.38     0.00      594      183     0.03     0.00      673       14        0      687
   15 158    82    15728     7781     0.35     0.00      610      191     0.03     0.00      702       14        0      716
   15 159    83    15501     7969     0.35     0.00      625      199     0.03     0.00      731       14        0      745
   15 160    84    16124     7531     0.11     0.00      642      207     0.03     0.00      759       14        0      773
   15 161    85    14858     6813     0.23     0.00      656      214     0.03     0.00      784       14        0      798
   15 162    86    13339     6125     0.31     0.00      670      220     0.03     0.00      806       14        0      821
   15 163    87    12468     5750     0.36     0.00      682      225     0.03     0.00      827       14        0      842
   15 164    88    12018     5750     0.36     0.00      694      231     0.03     0.00      848       15        0      863
   15 165    89    12517     6188     0.15     0.00      707      237     0.03     0.00      871       15        0      886
   15 166    90    13508     7125     0.14     0.00      720      245     0.03     0.00      897       15        0      912
   15 167    91    13303     7156     0.12     0.00      734      252     0.03     0.00      924       15        0      938
   15 168    92    13266     6750     0.23     0.00      747      258     0.03     0.00      948       15        0      963
   15 169    93    12309     6125     0.32     0.00      759      265     0.03     0.00      971       15        0      986
   15 170    94    10470     5594     0.11     0.00      770      270     0.03     0.00      991       15        0     1006
   15 171    95     9327     4844     0.23     0.00      779      275     0.03     0.00     1009       15        0     1024
   15 172    96     8927     4563     0.31     0.00      788      280     0.03     0.00     1026       15        0     1041
   15 173    97     8531     4406     0.35     0.00      796      284     0.03     0.00     1042       16        0     1058
   15 174    98     8371     4563     0.12     0.00      805      289     0.03     0.00     1059       16        0     1074
   15 175    99     8321     4563     0.18     0.00      813      293     0.03     0.00     1076       16        0     1091
   15 176   100     8701     4625     0.30     0.00      822      298     0.03     0.00     1093       16        0     1108
   15 177   101     9024     4844     0.36     0.00      831      303     0.03     0.00     1110       16        0     1126
   15 178   102     9388     5250     0.35     0.00      840      308     0.03     0.00     1130       16        0     1146
   15 179   103     9418     5469     0.34     0.00      850      313     0.03     0.00     1150       16        0     1166
   15 180   104    10071     6000     0.34     0.00      860      319     0.04     0.00     1172       16        0     1188
   15 181   105    10664     6500     0.33     0.00      870      326     0.04     0.00     1196       17        0     1212
   15 182   106    11504     7281     0.33     0.00      882      333     0.04     0.00     1222       17        0     1239
   15 183   107    11697     7625     0.33     0.00      894      341     0.04     0.00     1250       17        0     1267
   15 184   108    11825     7938     1.12     0.00      905      349     0.04     0.00     1279       17        0     1297
   15 185   109    12040     8281     1.61     0.00      917      357     0.04     0.00     1310       18        0     1328
   15 186   110    12249     8594     1.89     0.00      930      365     0.04     0.00     1341       19        0     1360
   15 187   111    12271     8813     2.00     0.00      942      374     0.04     0.00     1374       20        0     1394
   15 188   112    11956     8781     1.99     0.00      954      383     0.04     0.00     1406       21        0     1427
   15 189   113    13199     9125     1.85     0.00      967      392     0.05     0.00     1439       22        0     1461
   15 190   114    13283     8625     1.66     0.00      980      401     0.05     0.00     1471       23        0     1494
   15 191   115    11416     7656     1.45     0.00      992      408     0.05     0.00     1499       23        0     1522
   15 192   116     9657     6688     1.27     0.00     1001      415     0.05     0.00     1524       24        0     1548
   15 193   117     8641     6156     1.13     0.00     1010      421     0.05     0.00     1546       24        0     1571
   15 194   118     7590     5563     1.02     0.00     1018      427     0.05     0.00     1567       25        0     1592
   15 195   119     7557     5563     0.89     0.00     1025      432     0.05     0.00     1587       25        0     1612
   15 196   120     8106     6031     0.80     0.00     1033      438     0.05     0.00     1609       26        0     1635
   15 197   121     8608     6531     0.72     0.00     1042      445     0.06     0.00     1633       26        0     1659
   15 198   122     8718     6719     0.66     0.00     1051      452     0.06     0.00     1658       26        0     1684
   15 199   123     8732     6875     0.60     0.00     1059      459     0.06     0.00     1683       27        0     1710
   15 200   124     8731     6969     0.56     0.00     1068      466     0.06     0.00     1709       27        0     1735
   15 201   125     8640     6969     0.52     0.00     1077      473     0.06     0.00     1734       27        0     1761
   15 202   126     8532     6969     0.48     0.00     1085      480     0.06     0.00     1760       27        0     1787
   15 203   127     8467     7000     0.46     0.00     1094      487     0.06     0.00     1785       28        0     1813
   15 204   128     8184     6875     0.44     0.00     1102      493     0.06     0.00     1811       28        0     1838
   15 205   129     8065     6688     0.40     0.00     1110      500     0.06     0.00     1835       28        0     1863
   15 206   130     7875     6625     0.40     0.00     1118      507     0.06     0.00     1860       28        0     1888
   15 207   131     7285     6188     0.39     0.00     1125      513     0.06     0.00     1882       28        0     1911
   15 208   132     6446     5531     0.38     0.00     1132      518     0.06     0.00     1903       29        0     1931
   15 209   133     6364     5156     0.34     0.00     1138      524     0.06     0.00     1921       29        0     1950
   15 210   134     6061     4938     0.34     0.00     1144      529     0.06     0.00     1940       29        0     1968
   15 211   135     5494     4438     0.34     0.00     1150      533     0.06     0.00     1956       29        0     1985
   15 212   136     4989     4063     0.35     0.00     1155      537     0.06     0.00     1971       29        0     2000
   15 213   137     4876     4094     0.36     0.00     1159      541     0.06     0.00     1986       29        0     2015
   15 214   138     4654     3906     0.36     0.00     1164      545     0.06     0.00     2000       29        0     2030
   15 215   139     4685     4031     0.36     0.00     1169      549     0.06     0.00     2015       30        0     2045
   15 216   140     4953     4281     0.37     0.00     1174      553     0.06     0.00     2031       30        0     2060
   15 217   141     5352     4656     0.37     0.00     1179      558     0.06     0.00     2048       30        0     2078
   15 218   142     5567     4906     0.37     0.00     1185      563     0.06     0.00     2066       30        0     2096
   15 219   143     5898     5250     0.37     0.00     1191      568     0.06     0.00     2085       30        0     2115
   15 220   144     6176     5500     0.37     0.00     1197      574     0.07     0.00     2105       31        0     2136
   15 221   145     6654     5875     0.35     0.00     1203      580     0.07     0.00     2127       31        0     2157
   15 222   146     6763     5969     0.36     0.00     1210      585     0.07     0.00     2149       31        0     2180
   15 223   147     6843     6125     0.36     0.00     1217      592     0.07     0.00     2171       31        0     2202
   15 224   148     6797     6125     0.36     0.00     1224      598     0.07     0.00     2194       31        0     2225

*DSSAT Cropping System Model Ver. 4.8.5.000 -release  OCT 27, 2025 22:35:44

*RUN   4        : 4                         WHAPS048 TUDU1501    4
 MODEL          : WHAPS048 - Wheat
 EXPERIMENT     : TUDU1501 WH
 DATA PATH      :
 TREATMENT  4   : 4                         WHAPS048
  
!               |---------- Daily (g/ha) ----------|------- Cumulative (kg/ha) --------|---- Cum CO2-equiv kg[CO2eq]/ha ---|
!               Soil CO2  Net CO2      N2O      CH4 Soil CO2  Net CO2      N2O      CH4  Net CO2      N2O      CH4    Total
!                g[C]/ha  g[C]/ha  g[N]/ha  g[C]/ha kg[C]/ha kg[C]/ha kg[N]/ha kg[C]/ha    CO2eq    CO2eq    CO2eq    CO2eq
@YEAR DOY   DAS   CO2GED   CO2END   N2OGED   CH4GED    CO2EC   CO2ENC    N2OEC    CH4EC    CCEQC    NCEQC    MCEQC    TCEQC
   15 077     1    11813     1156     0.06     0.00       12        1     0.00     0.00        4        0        0        4
   15 078     2    10011     1063     0.10     0.00       22        2     0.00     0.00        8        0        0        8
   15 079     3     7794      969     0.14     0.00       30        3     0.00     0.00       12        0        0       12
   15 080     4     5527      750     0.18     0.00       35        4     0.00     0.00       14        0        0       15
   15 081     5     3507      469     0.21     0.00       39        4     0.00     0.00       16        0        0       16
   15 082     6      726      188     0.24     0.00       39        5     0.00     0.00       17        0        0       17
   15 083     7       90       31     0.27     0.00       39        5     0.00     0.00       17        1        0       18
   15 084     8      107       63     0.30     0.00       40        5     0.00     0.00       17        1        0       18
   15 085     9      595      125     0.32     0.00       40        5     0.00     0.00       18        1        0       19
   15 086    10      702      188     0.35     0.00       41        5     0.00     0.00       18        1        0       19
   15 087    11     1613      281     0.36     0.00       42        5     0.00     0.00       19        1        0       21
   15 088    12     2663      469     0.39     0.00       45        6     0.00     0.00       21        1        0       22
   15 089    13     3592      563     0.41     0.00       49        6     0.00     0.00       23        2        0       25
   15 090    14     3071      438     0.37     0.00       52        7     0.00     0.00       25        2        0       27
   15 091    15     3608      500     0.28     0.00       55        7     0.00     0.00       27        2        0       28
   15 092    16     2357      344     0.26     0.00       58        8     0.00     0.00       28        2        0       30
   15 093    17     1163      219     0.20     0.00       59        8     0.00     0.00       29        2        0       31
   15 094    18       46        0     0.42     0.00       59        8     0.00     0.00       29        2        0       31
   15 095    19        0        0     0.27     0.00       59        8     0.01     0.00       29        2        0       31
   15 096    20        0        0     0.46     0.00       59        8     0.01     0.00       29        3        0       31
   15 097    21        0        0     0.55     0.00       59        8     0.01     0.00       29        3        0       32
   15 098    22        0        0     0.55     0.00       59        8     0.01     0.00       29        3        0       32
   15 099    23        0        0     0.76     0.00       59        8     0.01     0.00       29        3        0       32
   15 100    24       44       31     0.94     0.00       59        8     0.01     0.00       29        4        0       33
   15 101    25     2768      438     1.11     0.00       62        8     0.01     0.00       30        4        0       35
   15 102    26     6168      969     1.28     0.00       68        9     0.01     0.00       34        5        0       39
   15 103    27     9028     1500     1.42     0.00       77       11     0.01     0.00       39        6        0       45
   15 104    28    10496     1813     1.53     0.00       87       13     0.01     0.00       46        6        0       53
   15 105    29    10690     1938     1.57     0.00       98       15     0.02     0.00       53        7        0       60
   15 106    30    11346     2188     1.56     0.00      110       17     0.02     0.00       61        8        0       69
   15 107    31    12037     2531     1.53     0.00      122       19     0.02     0.00       71        9        0       79
   15 108    32    13022     2406     0.44     0.00      135       22     0.02     0.00       79        9        0       88
   15 109    33    11300     1875     1.00     0.00      146       24     0.02     0.00       86        9        0       96
   15 110    34     9394     1531     1.34     0.00      155       25     0.02     0.00       92       10        0      102
   15 111    35     6955     1250     1.25     0.00      162       26     0.02     0.00       96       10        0      107
   15 112    36     5039      969     1.16     0.00      167       27     0.02     0.00      100       11        0      111
   15 113    37     4862     1031     1.08     0.00      172       28     0.02     0.00      104       12        0      115
   15 114    38     4999     1125     1.02     0.00      177       29     0.03     0.00      108       12        0      120
   15 115    39     5796     1344     0.96     0.00      183       31     0.03     0.00      113       12        0      125
   15 116    40     6626     1563     0.88     0.00      190       32     0.03     0.00      119       13        0      131
   15 117    41     8030     2000     0.81     0.00      198       34     0.03     0.00      126       13        0      139
   15 118    42     9770     2156     0.73     0.00      207       36     0.03     0.00      134       14        0      147
   15 119    43    10557     2281     0.40     0.00      218       39     0.03     0.00      142       14        0      156
   15 120    44     9899     2063     0.62     0.00      228       41     0.03     0.00      150       14        0      164
   15 121    45     9490     2000     0.64     0.00      237       43     0.03     0.00      157       14        0      171
   15 122    46     6528     1719     0.21     0.00      244       45     0.03     0.00      163       14        0      178
   15 123    47     5500     1344     0.34     0.00      249       46     0.03     0.00      168       15        0      183
   15 124    48     6597     1844     0.22     0.00      256       48     0.03     0.00      175       15        0      190
   15 125    49    10109     2563     0.44     0.00      266       50     0.03     0.00      185       15        0      199
   15 126    50    12497     3188     0.38     0.00      279       53     0.03     0.00      196       15        0      211
   15 127    51    12012     3813     0.23     0.00      291       57     0.03     0.00      210       15        0      225
   15 128    52    13432     3906     0.45     0.00      304       61     0.03     0.00      225       15        0      240
   15 129    53    14124     4063     0.61     0.00      318       65     0.03     0.00      239       16        0      255
   15 130    54    12921     3844     0.51     0.00      331       69     0.03     0.00      254       16        0      270
   15 131    55    11264     3469     0.68     0.00      342       73     0.03     0.00      266       16        0      283
   15 132    56    11244     3750     0.71     0.00      354       76     0.04     0.00      280       17        0      297
   15 133    57    12053     4313     0.73     0.00      366       81     0.04     0.00      296       17        0      313
   15 134    58    12797     4438     0.61     0.00      378       85     0.04     0.00      312       17        0      329
   15 135    59    12465     4719     0.79     0.00      391       90     0.04     0.00      329       18        0      347
   15 136    60    11654     4594     0.80     0.00      402       94     0.04     0.00      346       18        0      364
   15 137    61    11276     4563     0.80     0.00      414       99     0.04     0.00      363       18        0      381
   15 138    62    10156     4188     0.80     0.00      424      103     0.04     0.00      378       19        0      397
   15 139    63     9297     3938     0.81     0.00      433      107     0.04     0.00      393       19        0      412
   15 140    64     9650     3844     0.30     0.00      443      111     0.04     0.00      407       19        0      426
   15 141    65     8657     3656     0.26     0.00      452      115     0.04     0.00      420       19        0      440
   15 142    66     8256     3375     0.41     0.00      460      118     0.04     0.00      433       20        0      452
   15 143    67     7583     2938     0.63     0.00      467      121     0.04     0.00      444       20        0      463
   15 144    68     6542     2625     0.51     0.00      474      124     0.04     0.00      453       20        0      473
   15 145    69     6072     2406     0.61     0.00      480      126     0.04     0.00      462       20        0      482
   15 146    70     7421     3031     0.77     0.00      487      129     0.04     0.00      473       21        0      494
   15 147    71     7850     3219     0.85     0.00      495      132     0.05     0.00      485       21        0      506
   15 148    72     7739     3188     0.82     0.00      503      135     0.05     0.00      497       22        0      518
   15 149    73     7847     3281     0.79     0.00      511      139     0.05     0.00      509       22        0      531
   15 150    74     8547     3656     0.75     0.00      519      142     0.05     0.00      522       22        0      544
   15 151    75     8572     3719     0.72     0.00      528      146     0.05     0.00      536       23        0      558
   15 152    76     9281     4125     0.69     0.00      537      150     0.05     0.00      551       23        0      574
   15 153    77    11409     5031     1.21     0.00      549      155     0.05     0.00      569       23        0      593
   15 154    78    12738     5813     1.49     0.00      561      161     0.05     0.00      591       24        0      615
   15 155    79    13447     6344     1.58     0.00      575      167     0.05     0.00      614       25        0      639
   15 156    80    13674     6781     1.57     0.00      589      174     0.05     0.00      639       26        0      665
   15 157    81    14133     7375     1.53     0.00      603      181     0.06     0.00      666       26        0      692
   15 158    82    14818     7625     1.31     0.00      617      189     0.06     0.00      694       27        0      721
   15 159    83    13977     7531     1.19     0.00      631      197     0.06     0.00      722       28        0      749
   15 160    84    15660     7094     0.38     0.00      647      204     0.06     0.00      748       28        0      775
   15 161    85    14396     6531     0.70     0.00      661      210     0.06     0.00      772       28        0      800
   15 162    86    12684     5969     0.81     0.00      674      216     0.06     0.00      794       28        0      822
   15 163    87    11726     5656     0.86     0.00      686      222     0.06     0.00      814       29        0      843
   15 164    88    11224     5594     0.76     0.00      697      227     0.06     0.00      835       29        0      864
   15 165    89    11689     5906     0.36     0.00      709      233     0.06     0.00      856       29        0      886
   15 166    90    12806     6813     0.28     0.00      722      240     0.06     0.00      881       29        0      911
   15 167    91    12928     7000     0.25     0.00      735      247     0.06     0.00      907       30        0      937
   15 168    92    13115     6781     0.41     0.00      748      254     0.06     0.00      932       30        0      962
   15 169    93    12170     6156     0.53     0.00      760      260     0.06     0.00      955       30        0      985
   15 170    94    10412     5625     0.19     0.00      770      266     0.06     0.00      975       30        0     1005
   15 171    95     9251     4844     0.35     0.00      779      271     0.06     0.00      993       30        0     1023
   15 172    96     8831     4594     0.45     0.00      788      275     0.07     0.00     1010       31        0     1040
   15 173    97     8442     4406     0.48     0.00      797      280     0.07     0.00     1026       31        0     1057
   15 174    98     8307     4594     0.15     0.00      805      284     0.07     0.00     1043       31        0     1074
   15 175    99     8254     4563     0.22     0.00      813      289     0.07     0.00     1060       31        0     1091
   15 176   100     8612     4656     0.36     0.00      822      293     0.07     0.00     1077       31        0     1108
   15 177   101     8957     4844     0.44     0.00      831      298     0.07     0.00     1095       31        0     1126
   15 178   102     9319     5250     0.41     0.00      840      304     0.07     0.00     1114       31        0     1145
   15 179   103     9382     5563     0.39     0.00      850      309     0.07     0.00     1134       32        0     1166
   15 180   104    10042     6031     0.37     0.00      860      315     0.07     0.00     1156       32        0     1188
   15 181   105    10614     6594     0.35     0.00      870      322     0.07     0.00     1181       32        0     1213
   15 182   106    11314     7219     0.34     0.00      882      329     0.07     0.00     1207       32        0     1239
   15 183   107    11307     7531     0.33     0.00      893      336     0.07     0.00     1235       32        0     1267
   15 184   108    11156     7594     1.13     0.00      904      344     0.07     0.00     1263       33        0     1295
   15 185   109    11106     7781     1.62     0.00      915      352     0.07     0.00     1291       34        0     1325
   15 186   110    11058     7938     1.89     0.00      926      360     0.07     0.00     1320       34        0     1355
   15 187   111    10841     7969     1.99     0.00      937      368     0.08     0.00     1350       35        0     1385
   15 188   112    10330     7781     1.98     0.00      947      376     0.08     0.00     1378       36        0     1414
   15 189   113    11283     8063     1.79     0.00      959      384     0.08     0.00     1408       37        0     1445
   15 190   114    11234     7500     1.60     0.00      970      391     0.08     0.00     1435       38        0     1473
   15 191   115     9641     6594     1.42     0.00      980      398     0.08     0.00     1459       39        0     1498
   15 192   116     8045     5750     1.27     0.00      988      403     0.08     0.00     1481       39        0     1520
   15 193   117     6988     5156     1.14     0.00      995      409     0.08     0.00     1499       40        0     1539
   15 194   118     5897     4531     1.04     0.00     1000      413     0.09     0.00     1516       40        0     1556
   15 195   119     5781     4438     0.89     0.00     1006      418     0.09     0.00     1532       41        0     1573
   15 196   120     6144     4813     0.80     0.00     1012      422     0.09     0.00     1550       41        0     1591
   15 197   121     6418     5125     0.72     0.00     1019      427     0.09     0.00     1569       41        0     1610
   15 198   122     6376     5156     0.65     0.00     1025      433     0.09     0.00     1588       42        0     1629
   15 199   123     6208     5156     0.59     0.00     1031      438     0.09     0.00     1607       42        0     1649
   15 200   124     6084     5094     0.54     0.00     1037      443     0.09     0.00     1625       42        0     1668
   15 201   125     5956     5125     0.50     0.00     1043      448     0.09     0.00     1644       42        0     1687
   15 202   126     5842     5031     0.46     0.00     1049      453     0.09     0.00     1663       43        0     1705
   15 203   127     5776     5094     0.43     0.00     1055      458     0.09     0.00     1681       43        0     1724
   15 204   128     5579     4938     0.41     0.00     1061      463     0.09     0.00     1699       43        0     1742
   15 205   129     5564     4875     0.37     0.00     1066      468     0.09     0.00     1717       43        0     1761
   15 206   130     5435     4813     0.36     0.00     1072      473     0.09     0.00     1735       43        0     1778
   15 207   131     5048     4469     0.35     0.00     1077      477     0.09     0.00     1751       44        0     1795
   15 208   132     4492     4063     0.35     0.00     1081      481     0.09     0.00     1766       44        0     1810
   15 209   133     4615     3875     0.31     0.00     1086      485     0.09     0.00     1781       44        0     1824
   15 210   134     4438     3688     0.30     0.00     1090      489     0.09     0.00     1794       44        0     1838
   15 211   135     4056     3344     0.30     0.00     1094      492     0.09     0.00     1806       44        0     1850
   15 212   136     3679     3125     0.31     0.00     1098      495     0.09     0.00     1818       44        0     1862
   15 213   137     3596     3094     0.32     0.00     1102      498     0.09     0.00     1829       44        0     1874
   15 214   138     3454     3000     0.32     0.00     1105      501     0.10     0.00     1840       45        0     1885
   15 215   139     3480     3063     0.32     0.00     1108      504     0.10     0.00     1851       45        0     1896
   15 216   140     3685     3281     0.32     0.00     1112      508     0.10     0.00     1863       45        0     1908
   15 217   141     4012     3594     0.32     0.00     1116      511     0.10     0.00     1877       45        0     1922
   15 218   142     4213     3844     0.32     0.00     1120      515     0.10     0.00     1891       45        0     1936
   15 219   143     4496     4094     0.32     0.00     1125      519     0.10     0.00     1906       45        0     1951
   15 220   144     4744     4344     0.32     0.00     1130      524     0.10     0.00     1922       45        0     1967
   15 221   145     5180     4688     0.31     0.00     1135      528     0.10     0.00     1939       46        0     1985
   15 222   146     5265     4781     0.31     0.00     1140      533     0.10     0.00     1956       46        0     2002
   15 223   147     5321     4844     0.32     0.00     1145      538     0.10     0.00     1974       46        0     2020
   15 224   148     5281     4906     0.32     0.00     1151      543     0.10     0.00     1992       46        0     2038

*DSSAT Cropping System Model Ver. 4.8.5.000 -release  OCT 27, 2025 22:35:44

*RUN   5        : 5                         WHAPS048 TUDU1501    5
 MODEL          : WHAPS048 - Wheat
 EXPERIMENT     : TUDU1501 WH
 DATA PATH      :
 TREATMENT  5   : 5                         WHAPS048
  
!               |---------- Daily (g/ha) ----------|------- Cumulative (kg/ha) --------|---- Cum CO2-equiv kg[CO2eq]/ha ---|
!               Soil CO2  Net CO2      N2O      CH4 Soil CO2  Net CO2      N2O      CH4  Net CO2      N2O      CH4    Total
!                g[C]/ha  g[C]/ha  g[N]/ha  g[C]/ha kg[C]/ha kg[C]/ha kg[N]/ha kg[C]/ha    CO2eq    CO2eq    CO2eq    CO2eq
@YEAR DOY   DAS   CO2GED   CO2END   N2OGED   CH4GED    CO2EC   CO2ENC    N2OEC    CH4EC    CCEQC    NCEQC    MCEQC    TCEQC
   15 077     1    11813     1156     0.06     0.00       12        1     0.00     0.00        4        0        0        4
   15 078     2    10011     1063     0.10     0.00       22        2     0.00     0.00        8        0        0        8
   15 079     3     7794      969     0.14     0.00       30        3     0.00     0.00       12        0        0       12
   15 080     4     5527      750     0.18     0.00       35        4     0.00     0.00       14        0        0       15
   15 081     5     3507      469     0.21     0.00       39        4     0.00     0.00       16        0        0       16
   15 082     6      726      188     0.24     0.00       39        5     0.00     0.00       17        0        0       17
   15 083     7       90       31     0.27     0.00       39        5     0.00     0.00       17        1        0       18
   15 084     8      107       63     0.30     0.00       40        5     0.00     0.00       17        1        0       18
   15 085     9      595      125     0.32     0.00       40        5     0.00     0.00       18        1        0       19
   15 086    10      702      188     0.35     0.00       41        5     0.00     0.00       18        1        0       19
   15 087    11     1613      281     0.36     0.00       42        5     0.00     0.00       19        1        0       21
   15 088    12     2663      469     0.39     0.00       45        6     0.00     0.00       21        1        0       22
   15 089    13     3592      563     0.41     0.00       49        6     0.00     0.00       23        2        0       25
   15 090    14     3071      438     0.37     0.00       52        7     0.00     0.00       25        2        0       27
   15 091    15     3608      500     0.28     0.00       55        7     0.00     0.00       27        2        0       28
   15 092    16     2357      344     0.26     0.00       58        8     0.00     0.00       28        2        0       30
   15 093    17     1163      219     0.20     0.00       59        8     0.00     0.00       29        2        0       31
   15 094    18       46        0     0.42     0.00       59        8     0.00     0.00       29        2        0       31
   15 095    19        0        0     0.27     0.00       59        8     0.01     0.00       29        2        0       31
   15 096    20        0        0     0.46     0.00       59        8     0.01     0.00       29        3        0       31
   15 097    21        0        0     0.55     0.00       59        8     0.01     0.00       29        3        0       32
[...]
   15 219   143     4437     4094     0.32     0.00     1119      513     0.15     0.00     1883       68        0     1951
   15 220   144     4731     4344     0.32     0.00     1124      517     0.15     0.00     1899       68        0     1967
   15 221   145     5123     4656     0.31     0.00     1129      522     0.15     0.00     1916       68        0     1985
   15 222   146     5213     4781     0.31     0.00     1134      527     0.15     0.00     1934       69        0     2002
   15 223   147     5275     4875     0.31     0.00     1139      532     0.15     0.00     1952       69        0     2020
   15 224   148     5246     4875     0.31     0.00     1144      537     0.15     0.00     1969       69        0     2038

*DSSAT Cropping System Model Ver. 4.8.5.000 -release  OCT 27, 2025 22:35:46

*RUN  15        : 15                        WHAPS048 TUDU1501   15
 MODEL          : WHAPS048 - Wheat
 EXPERIMENT     : TUDU1501 WH
 DATA PATH      :
 TREATMENT 15   : 15                        WHAPS048
  
!               |---------- Daily (g/ha) ----------|------- Cumulative (kg/ha) --------|---- Cum CO2-equiv kg[CO2eq]/ha ---|
!               Soil CO2  Net CO2      N2O      CH4 Soil CO2  Net CO2      N2O      CH4  Net CO2      N2O      CH4    Total
!                g[C]/ha  g[C]/ha  g[N]/ha  g[C]/ha kg[C]/ha kg[C]/ha kg[N]/ha kg[C]/ha    CO2eq    CO2eq    CO2eq    CO2eq
@YEAR DOY   DAS   CO2GED   CO2END   N2OGED   CH4GED    CO2EC   CO2ENC    N2OEC    CH4EC    CCEQC    NCEQC    MCEQC    TCEQC
   15 077     1    11813     1156     0.06     0.00       12        1     0.00     0.00        4        0        0        4
   15 078     2    10011     1063     0.10     0.00       22        2     0.00     0.00        8        0        0        8
   15 079     3     7794      969     0.14     0.00       30        3     0.00     0.00       12        0        0       12
   15 080     4     5527      750     0.18     0.00       35        4     0.00     0.00       14        0        0       15
   15 081     5     3507      469     0.21     0.00       39        4     0.00     0.00       16        0        0       16
   15 082     6      726      188     0.24     0.00       39        5     0.00     0.00       17        0        0       17
   15 083     7       90       31     0.27     0.00       39        5     0.00     0.00       17        1        0       18
   15 084     8      107       63     0.30     0.00       40        5     0.00     0.00       17        1        0       18
   15 085     9      595      125     0.32     0.00       40        5     0.00     0.00       18        1        0       19
   15 086    10      702      188     0.35     0.00       41        5     0.00     0.00       18        1        0       19
   15 087    11     1613      281     0.36     0.00       42        5     0.00     0.00       19        1        0       21
   15 088    12     2663      469     0.39     0.00       45        6     0.00     0.00       21        1        0       22
   15 089    13     3592      563     0.41     0.00       49        6     0.00     0.00       23        2        0       25
   15 090    14     3071      438     0.37     0.00       52        7     0.00     0.00       25        2        0       27
   15 091    15     3608      500     0.28     0.00       55        7     0.00     0.00       27        2        0       28
   15 092    16     2357      344     0.26     0.00       58        8     0.00     0.00       28        2        0       30
   15 093    17     1163      219     0.20     0.00       59        8     0.00     0.00       29        2        0       31
   15 094    18       46        0     0.42     0.00       59        8     0.00     0.00       29        2        0       31
   15 095    19        0        0     0.27     0.00       59        8     0.01     0.00       29        2        0       31
   15 096    20        0        0     0.46     0.00       59        8     0.01     0.00       29        3        0       31
   15 097    21        0        0     0.55     0.00       59        8     0.01     0.00       29        3        0       32
   15 098    22        0        0     0.55     0.00       59        8     0.01     0.00       29        3        0       32
   15 099    23        0        0     0.53     0.00       59        8     0.01     0.00       29        3        0       32
   15 100    24       44       31     0.53     0.00       59        8     0.01     0.00       29        4        0       32
   15 101    25     2768      438     0.52     0.00       62        8     0.01     0.00       30        4        0       34
   15 102    26     6168      969     0.52     0.00       68        9     0.01     0.00       34        4        0       38
   15 103    27     9028     1500     0.52     0.00       77       11     0.01     0.00       39        4        0       44
   15 104    28    10496     1813     0.52     0.00       87       13     0.01     0.00       46        5        0       51
   15 105    29    10690     1938     0.51     0.00       98       15     0.01     0.00       53        5        0       58
   15 106    30    11346     2188     0.51     0.00      110       17     0.01     0.00       61        5        0       66
   15 107    31    12038     2531     0.51     0.00      122       19     0.01     0.00       71        5        0       76
   15 108    32    12717     2500     0.14     0.00      134       22     0.01     0.00       80        5        0       85
   15 109    33    10978     1938     0.33     0.00      145       24     0.01     0.00       87        6        0       92
   15 110    34     9065     1594     0.47     0.00      154       25     0.01     0.00       93        6        0       98
   15 111    35     6711     1344     0.46     0.00      161       27     0.01     0.00       98        6        0      104
   15 112    36     4891     1031     0.46     0.00      166       28     0.01     0.00      101        6        0      108
   15 113    37     4684     1031     0.46     0.00      171       29     0.01     0.00      105        6        0      112
   15 114    38     4804     1156     0.47     0.00      175       30     0.01     0.00      109        7        0      116
   15 115    39     5554     1438     0.46     0.00      181       31     0.01     0.00      115        7        0      122
   15 116    40     6324     1656     0.45     0.00      187       33     0.02     0.00      121        7        0      128
   15 117    41     7640     2063     0.44     0.00      195       35     0.02     0.00      128        7        0      136
   15 118    42     9114     2344     0.42     0.00      204       37     0.02     0.00      137        7        0      144
   15 119    43     9762     2469     0.23     0.00      214       40     0.02     0.00      146        8        0      154
   15 120    44     9013     2281     0.39     0.00      223       42     0.02     0.00      154        8        0      162
   15 121    45     8655     2219     0.42     0.00      231       44     0.02     0.00      163        8        0      170
   15 122    46     5954     1844     0.14     0.00      237       46     0.02     0.00      169        8        0      177
   15 123    47     4990     1500     0.23     0.00      242       48     0.02     0.00      175        8        0      183
   15 124    48     6126     1969     0.14     0.00      249       50     0.02     0.00      182        8        0      190
   15 125    49     9366     2688     0.30     0.00      258       52     0.02     0.00      192        8        0      200
   15 126    50    11677     3438     0.26     0.00      270       56     0.02     0.00      204        8        0      213
   15 127    51    11564     3906     0.15     0.00      281       60     0.02     0.00      219        9        0      227
   15 128    52    12983     4031     0.30     0.00      294       64     0.02     0.00      234        9        0      242
   15 129    53    13547     4188     0.41     0.00      308       68     0.02     0.00      249        9        0      258
   15 130    54    12309     4031     0.29     0.00      320       72     0.02     0.00      264        9        0      273
   15 131    55    10989     3500     0.41     0.00      331       75     0.02     0.00      277        9        0      286
   15 132    56    11039     3813     0.42     0.00      342       79     0.02     0.00      291        9        0      300
   15 133    57    11955     4313     0.42     0.00      354       84     0.02     0.00      306       10        0      316
   15 134    58    12745     4500     0.29     0.00      367       88     0.02     0.00      323       10        0      333
   15 135    59    12871     4594     0.42     0.00      380       93     0.02     0.00      340       10        0      350
   15 136    60    11987     4531     0.44     0.00      392       97     0.02     0.00      356       10        0      367
   15 137    61    11555     4469     0.43     0.00      403      102     0.02     0.00      373       10        0      383
   15 138    62    10635     4094     0.43     0.00      414      106     0.02     0.00      388       11        0      398
   15 139    63    10035     3906     0.43     0.00      424      110     0.02     0.00      402       11        0      413
   15 140    64     9770     3813     0.14     0.00      434      113     0.02     0.00      416       11        0      427
   15 141    65     8729     3625     0.13     0.00      442      117     0.02     0.00      430       11        0      440
   15 142    66     8314     3375     0.21     0.00      451      120     0.02     0.00      442       11        0      453
   15 143    67     7658     2906     0.34     0.00      458      123     0.02     0.00      453       11        0      464
   15 144    68     6611     2594     0.27     0.00      465      126     0.02     0.00      462       11        0      473
   15 145    69     6146     2406     0.32     0.00      471      128     0.02     0.00      471       11        0      482
   15 146    70     7581     3000     0.41     0.00      479      131     0.02     0.00      482       12        0      493
   15 147    71     7941     3188     0.45     0.00      487      135     0.03     0.00      494       12        0      505
   15 148    72     7746     3188     0.44     0.00      494      138     0.03     0.00      505       12        0      517
   15 149    73     7874     3250     0.43     0.00      502      141     0.03     0.00      517       12        0      529
   15 150    74     8665     3656     0.42     0.00      511      145     0.03     0.00      531       12        0      543
   15 151    75     8740     3719     0.41     0.00      520      148     0.03     0.00      544       13        0      557
   15 152    76     9440     4031     0.40     0.00      529      152     0.03     0.00      559       13        0      572
   15 153    77    11280     5063     0.39     0.00      540      157     0.03     0.00      578       13        0      591
   15 154    78    12481     5719     0.39     0.00      553      163     0.03     0.00      599       13        0      612
   15 155    79    13162     6250     0.38     0.00      566      169     0.03     0.00      622       13        0      635
   15 156    80    13708     6688     0.38     0.00      580      176     0.03     0.00      646       13        0      660
   15 157    81    14591     7406     0.38     0.00      594      183     0.03     0.00      673       14        0      687
   15 158    82    15728     7781     0.35     0.00      610      191     0.03     0.00      702       14        0      716
   15 159    83    15501     7969     0.35     0.00      625      199     0.03     0.00      731       14        0      745
   15 160    84    16124     7531     0.11     0.00      642      207     0.03     0.00      759       14        0      773
   15 161    85    14858     6813     0.23     0.00      656      214     0.03     0.00      784       14        0      798
   15 162    86    13339     6125     0.31     0.00      670      220     0.03     0.00      806       14        0      821
   15 163    87    12468     5750     0.36     0.00      682      225     0.03     0.00      827       14        0      842
   15 164    88    12018     5750     0.36     0.00      694      231     0.03     0.00      848       15        0      863
   15 165    89    12517     6188     0.15     0.00      707      237     0.03     0.00      871       15        0      886
   15 166    90    13508     7125     0.14     0.00      720      245     0.03     0.00      897       15        0      912
   15 167    91    13303     7156     0.12     0.00      734      252     0.03     0.00      924       15        0      938
   15 168    92    13266     6750     0.23     0.00      747      258     0.03     0.00      948       15        0      963
   15 169    93    12309     6125     0.32     0.00      759      265     0.03     0.00      971       15        0      986
   15 170    94    10470     5594     0.11     0.00      770      270     0.03     0.00      991       15        0     1006
   15 171    95     9327     4844     0.23     0.00      779      275     0.03     0.00     1009       15        0     1024
   15 172    96     8927     4563     0.31     0.00      788      280     0.03     0.00     1026       15        0     1041
   15 173    97     8531     4406     0.35     0.00      796      284     0.03     0.00     1042       16        0     1058
   15 174    98     8371     4563     0.12     0.00      805      289     0.03     0.00     1059       16        0     1074
   15 175    99     8321     4563     0.18     0.00      813      293     0.03     0.00     1076       16        0     1091
   15 176   100     8701     4625     0.30     0.00      822      298     0.03     0.00     1093       16        0     1108
   15 177   101     9024     4844     0.36     0.00      831      303     0.03     0.00     1110       16        0     1126
   15 178   102     9388     5250     0.35     0.00      840      308     0.03     0.00     1130       16        0     1146
   15 179   103     9418     5469     0.34     0.00      850      313     0.03     0.00     1150       16        0     1166
   15 180   104    10071     6000     0.34     0.00      860      319     0.04     0.00     1172       16        0     1188
   15 181   105    10664     6500     0.33     0.00      870      326     0.04     0.00     1196       17        0     1212
   15 182   106    11504     7281     0.33     0.00      882      333     0.04     0.00     1222       17        0     1239
   15 183   107    11697     7625     0.33     0.00      894      341     0.04     0.00     1250       17        0     1267
   15 184   108    11815     7938     0.33     0.00      905      349     0.04     0.00     1279       17        0     1296
   15 185   109    12033     8281     0.32     0.00      917      357     0.04     0.00     1310       17        0     1327
   15 186   110    12245     8625     0.32     0.00      930      366     0.04     0.00     1341       17        0     1359
   15 187   111    12268     8813     0.32     0.00      942      374     0.04     0.00     1374       18        0     1391
   15 188   112    11954     8750     0.32     0.00      954      383     0.04     0.00     1406       18        0     1424
   15 189   113    13194     9156     0.29     0.00      967      392     0.04     0.00     1439       18        0     1457
   15 190   114    13284     8594     0.28     0.00      980      401     0.04     0.00     1471       18        0     1489
   15 191   115    11390     7688     0.29     0.00      992      409     0.04     0.00     1499       18        0     1517
   15 192   116     9645     6656     0.29     0.00     1001      415     0.04     0.00     1524       18        0     1542
   15 193   117     8641     6156     0.30     0.00     1010      421     0.04     0.00     1546       18        0     1565
   15 194   118     7596     5563     0.32     0.00     1018      427     0.04     0.00     1567       19        0     1585
   15 195   119     7566     5594     0.32     0.00     1025      432     0.04     0.00     1587       19        0     1606
   15 196   120     8131     6063     0.32     0.00     1033      439     0.04     0.00     1609       19        0     1628
   15 197   121     8668     6531     0.33     0.00     1042      445     0.04     0.00     1633       19        0     1652
   15 198   122     8824     6781     0.34     0.00     1051      452     0.04     0.00     1658       19        0     1677
   15 199   123     8917     7000     0.34     0.00     1060      459     0.04     0.00     1684       19        0     1703
   15 200   124     8957     7094     0.35     0.00     1069      466     0.04     0.00     1710       19        0     1729
   15 201   125     8888     7125     0.35     0.00     1078      473     0.04     0.00     1736       20        0     1756
   15 202   126     8801     7125     0.35     0.00     1086      480     0.04     0.00     1762       20        0     1782
   15 203   127     8769     7219     0.36     0.00     1095      487     0.04     0.00     1789       20        0     1809
   15 204   128     8537     7094     0.36     0.00     1104      495     0.04     0.00     1815       20        0     1835
   15 205   129     8466     7000     0.35     0.00     1112      502     0.04     0.00     1841       20        0     1861
   15 206   130     8286     6875     0.35     0.00     1120      508     0.04     0.00     1866       20        0     1886
   15 207   131     7713     6500     0.35     0.00     1128      515     0.04     0.00     1890       21        0     1910
   15 208   132     6860     5813     0.36     0.00     1135      521     0.04     0.00     1911       21        0     1932
   15 209   133     6768     5469     0.32     0.00     1142      526     0.04     0.00     1931       21        0     1952
   15 210   134     6469     5188     0.33     0.00     1148      531     0.05     0.00     1950       21        0     1971
   15 211   135     5878     4688     0.33     0.00     1154      536     0.05     0.00     1967       21        0     1988
   15 212   136     5357     4344     0.34     0.00     1160      540     0.05     0.00     1983       21        0     2005
   15 213   137     5265     4344     0.35     0.00     1165      545     0.05     0.00     1999       22        0     2021
   15 214   138     5053     4219     0.36     0.00     1170      549     0.05     0.00     2015       22        0     2036
   15 215   139     5096     4313     0.36     0.00     1175      553     0.05     0.00     2030       22        0     2052
   15 216   140     5403     4594     0.36     0.00     1180      558     0.05     0.00     2047       22        0     2069
   15 217   141     5873     5063     0.36     0.00     1186      563     0.05     0.00     2066       22        0     2088
   15 218   142     6139     5313     0.37     0.00     1192      568     0.05     0.00     2085       22        0     2108
   15 219   143     6532     5719     0.37     0.00     1199      574     0.05     0.00     2106       23        0     2129
   15 220   144     6869     6063     0.37     0.00     1206      580     0.05     0.00     2129       23        0     2151
   15 221   145     7398     6438     0.36     0.00     1213      586     0.05     0.00     2152       23        0     2175
   15 222   146     7530     6594     0.36     0.00     1221      593     0.05     0.00     2176       23        0     2200
   15 223   147     7624     6750     0.37     0.00     1228      600     0.05     0.00     2201       23        0     2224
   15 224   148     7577     6719     0.37     0.00     1236      607     0.05     0.00     2226       23        0     2249
