*N2O emissions output file

*DSSAT Cropping System Model Ver. 4.8.5.000 -release  OCT 27, 2025 22:35:44

*RUN   1        : 1                         WHAPS048 TUDU1501    1
 MODEL          : WHAPS048 - Wheat
 EXPERIMENT     : TUDU1501 WH
 DATA PATH      :
 TREATMENT  1   : 1                         WHAPS048
  
!              |------------------------------ Cumulative -----------------------------|------------------------------ Daily ----------------------------------|
!               N2Oemit  N2emit  NOemit   Denit  Nitrif   N2O-denit+nit      N2      NO N2Oemit  N2emit  NOemit   Denit  Nitrif   N2O-denit+nit      N2      NO   Denitrification (g[N]/ha) by soil depth (cm):                           Nitrification (g[N]/ha) by soil depth (cm):                             N2O flux (g[N]/ha) by soil depth (cm):                                  N2 flux (g[N]/ha) by soil depth (cm):                                   NO flux (g[N]/ha) by soil depth (cm):
!                 kg/ha   kg/ha   kg/ha   kg/ha   kg/ha   kg/ha   kg/ha   kg/ha   kg/ha    g/ha    g/ha    g/ha    g/ha    g/ha    g/ha    g/ha    g/ha    g/ha     0-5    5-15   15-30   30-45   45-60   60-80  80-100 100-150 150-200     0-5    5-15   15-30   30-45   45-60   60-80  80-100 100-150 150-200     0-5    5-15   15-30   30-45   45-60   60-80  80-100 100-150 150-200     0-5    5-15   15-30   30-45   45-60   60-80  80-100 100-150 150-200     0-5    5-15   15-30   30-45   45-60   60-80  80-100 100-150 150-200
@YEAR DOY   DAS   N2OEC    N2EC    NOEC    NDNC    NITC   N2ODC   N2ONC   N2FLC   NOFLC  N2OGED   N2GED   NOGED    NDND   NITRD   N2ODD   N2OND   N2FLD   NOFLD   NDN1D   NDN2D   NDN3D   NDN4D   NDN5D   NDN6D   NDN7D   NDN8D   NDN9D   NIT1D   NIT2D   NIT3D   NIT4D   NIT5D   NIT6D   NIT7D   NIT8D   NIT9D   N2O1D   N2O2D   N2O3D   N2O4D   N2O5D   N2O6D   N2O7D   N2O8D   N2O9D   N2F1D   N2F2D   N2F3D   N2F4D   N2F5D   N2F6D   N2F7D   N2F8D   N2F9D   NOF1D   NOF2D   NOF3D   NOF4D   NOF5D   NOF6D   NOF7D   NOF8D   NOF9D   
   15 077     1    0.00    0.00    0.00    0.00     3.6   0.000   0.004   0.000   0.006     0.1     0.0     0.2     0.0    3551    0.00    3.55    0.00    5.96     0.0     0.0     0.0     0.0     0.0     0.0     0.0     0.0     0.0    217.    378.    476.    383.    378.    367.    362.    498.    493.     0.2     0.4     0.5     0.4     0.4     0.4     0.4     0.5     0.5     0.0     0.0     0.0     0.0     0.0     0.0     0.0     0.0     0.0     0.9     1.2     1.1     0.5     0.5     0.4     0.4     0.5     0.5
   15 078     2    0.00    0.00    0.00    0.00     6.5   0.000   0.007   0.000   0.011     0.1     0.0     0.3     0.0    2966    0.00    2.97    0.00    4.75     0.0     0.0     0.0     0.0     0.0     0.0     0.0     0.0     0.0    179.    310.    397.    319.    316.    306.    304.    418.    418.     0.2     0.3     0.4     0.3     0.3     0.3     0.3     0.4     0.4     0.0     0.0     0.0     0.0     0.0     0.0     0.0     0.0     0.0     0.5     1.0     0.9     0.4     0.4     0.3     0.3     0.4     0.4
   15 079     3    0.00    0.00    0.00    0.00     9.0   0.000   0.009   0.000   0.015     0.1     0.0     0.4     0.0    2460    0.00    2.46    0.00    3.92     0.0     0.0     0.0     0.0     0.0     0.0     0.0     0.0     0.0    147.    253.    328.    263.    262.    253.    253.    349.    352.     0.1     0.3     0.3     0.3     0.3     0.3     0.3     0.3     0.4     0.0     0.0     0.0     0.0     0.0     0.0     0.0     0.0     0.0     0.4     0.8     0.7     0.4     0.4     0.3     0.3     0.3     0.3
   15 080     4    0.00    0.00    0.00    0.00    11.0   0.000   0.011   0.000   0.027     0.2     0.0     0.8     0.0    2042    0.00    2.04    0.00   12.18     0.0     0.0     0.0     0.0     0.0     0.0     0.0     0.0     0.0    121.    207.    271.    217.    218.    210.    211.    291.    297.     0.1     0.2     0.3     0.2     0.2     0.2     0.2     0.3     0.3     0.0     0.0     0.0     0.0     0.0     0.0     0.0     0.0     0.0     1.4     2.5     2.2     1.1     1.1     0.8     0.8     1.0     1.0
   15 081     5    0.00    0.00    0.00    0.00    12.7   0.000   0.013   0.000   0.035     0.2     0.0     1.0     0.0    1709    0.00    1.71    0.00    8.25     0.0     0.0     0.0     0.0     0.0     0.0     0.0     0.0     0.0    101.    171.    226.    181.    182.    175.    177.    245.    252.     0.1     0.2     0.2     0.2     0.2     0.2     0.2     0.2     0.3     0.0     0.0     0.0     0.0     0.0     0.0     0.0     0.0     0.0     0.9     1.7     1.5     0.8     0.8     0.6     0.6     0.7     0.7
   15 082     6    0.00    0.00    0.00    0.00    14.1   0.000   0.014   0.000   0.041     0.2     0.0     1.2     0.0    1408    0.00    1.41    0.00    5.51     0.0     0.0     0.0     0.0     0.0     0.0     0.0     0.0     0.0     82.    139.    185.    148.    150.    144.    146.    203.    211.     0.1     0.1     0.2     0.1     0.2     0.1     0.1     0.2     0.2     0.0     0.0     0.0     0.0     0.0     0.0     0.0     0.0     0.0     0.6     1.1     1.0     0.5     0.5     0.4     0.4     0.5     0.5
   15 083     7    0.00    0.00    0.01    0.00    15.4   0.000   0.015   0.000   0.044     0.3     0.0     1.4     0.0    1219    0.00    1.22    0.00    3.88     0.0     0.0     0.0     0.0     0.0     0.0     0.0     0.0     0.0     71.    120.    160.    128.    130.    124.    127.    175.    183.     0.1     0.1     0.2     0.1     0.1     0.1     0.1     0.2     0.2     0.0     0.0     0.0     0.0     0.0     0.0     0.0     0.0     0.0     0.4     0.8     0.7     0.4     0.4     0.3     0.3     0.3     0.3
   15 084     8    0.00    0.00    0.01    0.00    16.5   0.000   0.016   0.000   0.047     0.3     0.0     1.5     0.0    1123    0.00    1.12    0.00    2.93     0.0     0.0     0.0     0.0     0.0     0.0     0.0     0.0     0.0     67.    112.    149.    119.    120.    114.    116.    159.    166.     0.1     0.1     0.1     0.1     0.1     0.1     0.1     0.2     0.2     0.0     0.0     0.0     0.0     0.0     0.0     0.0     0.0     0.0     0.4     0.6     0.5     0.3     0.3     0.2     0.2     0.2     0.3
   15 085     9    0.00    0.00    0.01    0.00    17.6   0.000   0.018   0.000   0.050     0.3     0.0     1.6     0.0    1073    0.00    1.07    0.00    2.31     0.0     0.0     0.0     0.0     0.0     0.0     0.0     0.0     0.0     65.    110.    145.    114.    116.    109.    111.    149.    154.     0.1     0.1     0.1     0.1     0.1     0.1     0.1     0.1     0.2     0.0     0.0     0.0     0.0     0.0     0.0     0.0     0.0     0.0     0.3     0.5     0.4     0.2     0.2     0.2     0.2     0.2     0.2
   15 086    10    0.00    0.00    0.01    0.00    18.5   0.000   0.019   0.000   0.051     0.3     0.0     1.6     0.0     983    0.00    0.98    0.00    1.73     0.0     0.0     0.0     0.0     0.0     0.0     0.0     0.0     0.0     61.    102.    134.    105.    106.    100.    101.    135.    140.     0.1     0.1     0.1     0.1     0.1     0.1     0.1     0.1     0.1     0.0     0.0     0.0     0.0     0.0     0.0     0.0     0.0     0.0     0.2     0.4     0.3     0.2     0.2     0.1     0.1     0.1     0.1
   15 087    11    0.00    0.00    0.01    0.00    19.5   0.000   0.019   0.000   0.053     0.4     0.0     1.6     0.0     927    0.00    0.93    0.00    1.52     0.0     0.0     0.0     0.0     0.0     0.0     0.0     0.0     0.0     59.     98.    128.    100.    101.     94.     95.    125.    129.     0.1     0.1     0.1     0.1     0.1     0.1     0.1     0.1     0.1     0.0     0.0     0.0     0.0     0.0     0.0     0.0     0.0     0.0     0.2     0.3     0.3     0.1     0.1     0.1     0.1     0.1     0.1
   15 088    12    0.00    0.00    0.01    0.00    20.3   0.000   0.020   0.000   0.054     0.4     0.0     1.7     0.0     878    0.00    0.88    0.00    1.46     0.0     0.0     0.0     0.0     0.0     0.0     0.0     0.0     0.0     57.     94.    123.     95.     96.     88.     89.    117.    120.     0.1     0.1     0.1     0.1     0.1     0.1     0.1     0.1     0.1     0.0     0.0     0.0     0.0     0.0     0.0     0.0     0.0     0.0     0.2     0.3     0.3     0.1     0.1     0.1     0.1     0.1     0.1
   15 089    13    0.00    0.00    0.02    0.00    21.2   0.000   0.021   0.000   0.056     0.4     0.0     1.7     0.0     825    0.00    0.83    0.00    1.39     0.0     0.0     0.0     0.0     0.0     0.0     0.0     0.0     0.0     53.     89.    117.     90.     91.     83.     83.    109.    111.     0.1     0.1     0.1     0.1     0.1     0.1     0.1     0.1     0.1     0.0     0.0     0.0     0.0     0.0     0.0     0.0     0.0     0.0     0.2     0.3     0.3     0.1     0.1     0.1     0.1     0.1     0.1
   15 090    14    0.00    0.00    0.02    0.00    21.9   0.000   0.022   0.000   0.057     0.4     0.0     1.4     0.0     722    0.00    0.72    0.00    1.15     0.0     0.0     0.0     0.0     0.0     0.0     0.0     0.0     0.0     47.     77.    102.     79.     79.     72.     73.     95.     98.     0.0     0.1     0.1     0.1     0.1     0.1     0.1     0.1     0.1     0.0     0.0     0.0     0.0     0.0     0.0     0.0     0.0     0.0     0.1     0.3     0.2     0.1     0.1     0.1     0.1     0.1     0.1
   15 091    15    0.00    0.00    0.02    0.00    22.5   0.000   0.023   0.000   0.058     0.3     0.0     1.1     0.0     657    0.00    0.66    0.00    0.97     0.0     0.0     0.0     0.0     0.0     0.0     0.0     0.0     0.0     36.     69.     95.     73.     74.     67.     67.     87.     90.     0.0     0.1     0.1     0.1     0.1     0.1     0.1     0.1     0.1     0.0     0.0     0.0     0.0     0.0     0.0     0.0     0.0     0.0     0.0     0.2     0.2     0.1     0.1     0.1     0.1     0.1     0.1
   15 092    16    0.00    0.00    0.02    0.00    23.1   0.000   0.023   0.000   0.059     0.3     0.0     0.9     0.0     557    0.00    0.56    0.00    0.76     0.0     0.0     0.0     0.0     0.0     0.0     0.0     0.0     0.0     28.     57.     74.     63.     64.     58.     59.     76.     79.     0.0     0.1     0.1     0.1     0.1     0.1     0.1     0.1     0.1     0.0     0.0     0.0     0.0     0.0     0.0     0.0     0.0     0.0     0.0     0.1     0.2     0.1     0.1     0.1     0.1     0.1     0.1
   15 093    17    0.00    0.00    0.02    0.00    23.6   0.000   0.024   0.000   0.059     0.2     0.0     0.7     0.0     460    0.00    0.46    0.00    0.56     0.0     0.0     0.0     0.0     0.0     0.0     0.0     0.0     0.0     21.     47.     64.     45.     47.     50.     51.     67.     69.     0.0     0.0     0.1     0.0     0.0     0.1     0.1     0.1     0.1     0.0     0.0     0.0     0.0     0.0     0.0     0.0     0.0     0.0     0.0     0.1     0.1     0.1     0.1     0.1     0.1     0.1     0.1
   15 094    18    0.00    0.00    0.02    0.00    24.0   0.000   0.024   0.000   0.060     0.4     0.0     1.4     0.0     423    0.00    0.42    0.00    0.63     0.0     0.0     0.0     0.0     0.0     0.0     0.0     0.0     0.0     26.     43.     62.     40.     48.     43.     44.     57.     60.     0.0     0.0     0.1     0.0     0.0     0.0     0.0     0.1     0.1     0.0     0.0     0.0     0.0     0.0     0.0     0.0     0.0     0.0     0.0     0.1     0.1     0.1     0.1     0.0     0.0     0.1     0.1
   15 095    19    0.01    0.00    0.02    0.00    24.3   0.000   0.024   0.000   0.060     0.3     0.0     0.9     0.0     352    0.00    0.35    0.00    0.46     0.0     0.0     0.0     0.0     0.0     0.0     0.0     0.0     0.0     18.     36.     49.     35.     36.     37.     38.     50.     53.     0.0     0.0     0.0     0.0     0.0     0.0     0.0     0.0     0.1     0.0     0.0     0.0     0.0     0.0     0.0     0.0     0.0     0.0     0.0     0.1     0.1     0.0     0.0     0.0     0.0     0.0     0.0
   15 096    20    0.01    0.00    0.02    0.00    24.7   0.000   0.025   0.000   0.061     0.5     0.0     1.4     0.0     322    0.00    0.32    0.00    0.49     0.0     0.0     0.0     0.0     0.0     0.0     0.0     0.0     0.0     20.     33.     48.     31.     37.     32.     33.     43.     46.     0.0     0.0     0.0     0.0     0.0     0.0     0.0     0.0     0.0     0.0     0.0     0.0     0.0     0.0     0.0     0.0     0.0     0.0     0.0     0.1     0.1     0.0     0.1     0.0     0.0     0.0     0.0
   15 097    21    0.01    0.00    0.02    0.00    25.0   0.000   0.025   0.000   0.061     0.5     0.0     1.7     0.0     301    0.00    0.30    0.00    0.49     0.0     0.0     0.0     0.0     0.0     0.0     0.0     0.0     0.0     19.     32.     44.     34.     34.     29.     30.     39.     41.     0.0     0.0     0.0     0.0     0.0     0.0     0.0     0.0     0.0     0.0     0.0     0.0     0.0     0.0     0.0     0.0     0.0     0.0     0.1     0.1     0.1     0.0     0.0     0.0     0.0     0.0     0.0
   15 098    22    0.01    0.00    0.03    0.00    25.2   0.000   0.025   0.000   0.062     0.5     0.0     1.6     0.0     279    0.00    0.28    0.00    0.46     0.0     0.0     0.0     0.0     0.0     0.0     0.0     0.0     0.0     18.     30.     41.     32.     31.     27.     28.     35.     37.     0.0     0.0     0.0     0.0     0.0     0.0     0.0     0.0     0.0     0.0     0.0     0.0     0.0     0.0     0.0     0.0     0.0     0.0     0.1     0.1     0.1     0.0     0.0     0.0     0.0     0.0     0.0
   15 099    23    0.01    0.00    0.03    0.00    26.9   0.000   0.027   0.000   0.067     0.8     0.0     2.4     0.0    1696    0.00    1.70    0.00    5.37     0.0     0.0     0.0     0.0     0.0     0.0     0.0     0.0     0.0   1446.     29.     40.     31.     30.     26.     26.     33.     35.     1.4     0.0     0.0     0.0     0.0     0.0     0.0     0.0     0.0     0.0     0.0     0.0     0.0     0.0     0.0     0.0     0.0     0.0     5.0     0.1     0.1     0.0     0.0     0.0     0.0     0.0     0.0
   15 100    24    0.01    0.00    0.03    0.00    29.2   0.000   0.029   0.000   0.074     1.1     0.0     3.4     0.0    2218    0.00    2.22    0.00    7.28     0.0     0.0     0.0     0.0     0.0     0.0     0.0     0.0     0.0   1964.     30.     41.     31.     31.     26.     27.     33.     34.     2.0     0.0     0.0     0.0     0.0     0.0     0.0     0.0     0.0     0.0     0.0     0.0     0.0     0.0     0.0     0.0     0.0     0.0     6.9     0.1     0.1     0.0     0.0     0.0     0.0     0.0     0.0
   15 101    25    0.01    0.00    0.04    0.00    31.8   0.000   0.032   0.000   0.084     1.4     0.0     4.6     0.0    2659    0.00    2.66    0.00    9.09     0.0     0.0     0.0     0.0     0.0     0.0     0.0     0.0     0.0   2397.     32.     44.     33.     32.     27.     27.     33.     34.     2.4     0.0     0.0     0.0     0.0     0.0     0.0     0.0     0.0     0.0     0.0     0.0     0.0     0.0     0.0     0.0     0.0     0.0     8.7     0.1     0.1     0.0     0.0     0.0     0.0     0.0     0.0
   15 102    26    0.01    0.00    0.04    0.00    34.9   0.000   0.035   0.000   0.094     1.8     0.0     5.9     0.0    3051    0.00    3.05    0.00   10.96     0.0     0.0     0.0     0.0     0.0     0.0     0.0     0.0     0.0   2780.     33.     46.     35.     34.     28.     28.     34.     34.     2.8     0.0     0.0     0.0     0.0     0.0     0.0     0.0     0.0     0.0     0.0     0.0     0.0     0.0     0.0     0.0     0.0     0.0    10.5     0.1     0.1     0.0     0.0     0.0     0.0     0.0     0.0
   15 103    27    0.01    0.00    0.05    0.00    38.1   0.000   0.038   0.000   0.107     2.1     0.0     7.3     0.0    3265    0.00    3.27    0.00   12.36     0.0     0.0     0.0     0.0     0.0     0.0     0.0     0.0     0.0   2992.     30.     47.     35.     34.     28.     28.     35.     35.     3.0     0.0     0.0     0.0     0.0     0.0     0.0     0.0     0.0     0.0     0.0     0.0     0.0     0.0     0.0     0.0     0.0     0.0    11.9     0.1     0.1     0.0     0.0     0.0     0.0     0.0     0.0
   15 104    28    0.02    0.00    0.06    0.00    41.2   0.000   0.041   0.000   0.119     2.4     0.0     8.5     0.0    3120    0.00    3.12    0.00   12.44     0.0     0.0     0.0     0.0     0.0     0.0     0.0     0.0     0.0   2859.     24.     45.     33.     33.     27.     27.     35.     36.     2.9     0.0     0.0     0.0     0.0     0.0     0.0     0.0     0.0     0.0     0.0     0.0     0.0     0.0     0.0     0.0     0.0     0.0    12.0     0.1     0.1     0.0     0.0     0.0     0.0     0.0     0.0
   15 105    29    0.02    0.00    0.07    0.00    43.9   0.000   0.044   0.000   0.130     2.5     0.0     9.2     0.0    2605    0.00    2.60    0.00   10.86     0.0     0.0     0.0     0.0     0.0     0.0     0.0     0.0     0.0   2367.     17.     40.     30.     30.     25.     25.     34.     35.     2.4     0.0     0.0     0.0     0.0     0.0     0.0     0.0     0.0     0.0     0.0     0.0     0.0     0.0     0.0     0.0     0.0     0.0    10.5     0.1     0.1     0.0     0.0     0.0     0.0     0.0     0.0
   15 106    30    0.02    0.00    0.08    0.00    46.1   0.000   0.046   0.000   0.140     2.5     0.0     9.6     0.0    2240    0.00    2.24    0.00    9.71     0.0     0.0     0.0     0.0     0.0     0.0     0.0     0.0     0.0   2018.     12.     37.     28.     28.     23.     24.     34.     36.     2.0     0.0     0.0     0.0     0.0     0.0     0.0     0.0     0.0     0.0     0.0     0.0     0.0     0.0     0.0     0.0     0.0     0.0     9.4     0.0     0.1     0.0     0.0     0.0     0.0     0.0     0.0
   15 107    31    0.02    0.00    0.09    0.00    48.0   0.000   0.048   0.000   0.149     2.5     0.0     9.7     0.0    1952    0.00    1.95    0.00    8.74     0.0     0.0     0.0     0.0     0.0     0.0     0.0     0.0     0.0   1740.      7.     34.     26.     26.     22.     24.     35.     37.     1.7     0.0     0.0     0.0     0.0     0.0     0.0     0.0     0.0     0.0     0.0     0.0     0.0     0.0     0.0     0.0     0.0     0.0     8.5     0.0     0.1     0.0     0.0     0.0     0.0     0.0     0.0
   15 108    32    0.02    0.00    0.09    0.00    49.3   0.000   0.049   0.000   0.149     0.7     0.0     2.5     0.0    1230    0.00    1.23    0.00    0.67     0.0     0.0     0.0     0.0     0.0     0.0     0.0     0.0     0.0   1052.      2.     24.     18.     19.     20.     22.     35.     37.     1.1     0.0     0.0     0.0     0.0     0.0     0.0     0.0     0.0     0.0     0.0     0.0     0.0     0.0     0.0     0.0     0.0     0.0     0.5     0.0     0.0     0.0     0.0     0.0     0.0     0.0     0.0
   15 109    33    0.03    0.00    0.09    0.00    50.8   0.000   0.051   0.000   0.151     1.7     0.0     5.4     0.0    1514    0.00    1.51    0.00    2.20     0.0     0.0     0.0     0.0     0.0     0.0     0.0     0.0     0.0   1354.      2.     22.     16.     17.     17.     19.     33.     35.     1.4     0.0     0.0     0.0     0.0     0.0     0.0     0.0     0.0     0.0     0.0     0.0     0.0     0.0     0.0     0.0     0.0     0.0     2.0     0.0     0.0     0.0     0.0     0.0     0.0     0.0     0.0
   15 110    34    0.03    0.00    0.10    0.00    52.1   0.000   0.052   0.000   0.156     2.2     0.0     7.3     0.0    1341    0.00    1.34    0.00    4.61     0.0     0.0     0.0     0.0     0.0     0.0     0.0     0.0     0.0   1191.      0.     21.     16.     18.     15.     17.     30.     33.     1.2     0.0     0.0     0.0     0.0     0.0     0.0     0.0     0.0     0.0     0.0     0.0     0.0     0.0     0.0     0.0     0.0     0.0     4.4     0.0     0.0     0.0     0.0     0.0     0.0     0.0     0.0
   15 111    35    0.03    0.00    0.11    0.00    53.2   0.000   0.053   0.000   0.160     2.1     0.0     6.7     0.0    1032    0.00    1.03    0.00    3.51     0.0     0.0     0.0     0.0     0.0     0.0     0.0     0.0     0.0    900.      0.     17.     14.     15.     13.     15.     28.     30.     0.9     0.0     0.0     0.0     0.0     0.0     0.0     0.0     0.0     0.0     0.0     0.0     0.0     0.0     0.0     0.0     0.0     0.0     3.4     0.0     0.0     0.0     0.0     0.0     0.0     0.0     0.0
   15 112    36    0.03    0.00    0.12    0.00    54.0   0.000   0.054   0.000   0.162     1.9     0.0     6.1     0.0     805    0.00    0.80    0.00    2.74     0.0     0.0     0.0     0.0     0.0     0.0     0.0     0.0     0.0    686.      0.     15.     12.     13.     12.     13.     25.     28.     0.7     0.0     0.0     0.0     0.0     0.0     0.0     0.0     0.0     0.0     0.0     0.0     0.0     0.0     0.0     0.0     0.0     0.0     2.6     0.0     0.0     0.0     0.0     0.0     0.0     0.0     0.0
   15 113    37    0.03    0.00    0.12    0.00    54.6   0.000   0.055   0.000   0.165     1.8     0.0     5.6     0.0     683    0.00    0.68    0.00    2.38     0.0     0.0     0.0     0.0     0.0     0.0     0.0     0.0     0.0    571.      0.     13.     11.     12.     11.     13.     24.     27.     0.6     0.0     0.0     0.0     0.0     0.0     0.0     0.0     0.0     0.0     0.0     0.0     0.0     0.0     0.0     0.0     0.0     0.0     2.2     0.0     0.0     0.0     0.0     0.0     0.0     0.0     0.0
   15 114    38    0.04    0.00    0.13    0.00    55.3   0.000   0.055   0.000   0.167     1.6     0.0     5.2     0.0     612    0.00    0.61    0.00    2.24     0.0     0.0     0.0     0.0     0.0     0.0     0.0     0.0     0.0    505.      0.     12.     11.     12.     11.     12.     23.     26.     0.5     0.0     0.0     0.0     0.0     0.0     0.0     0.0     0.0     0.0     0.0     0.0     0.0     0.0     0.0     0.0     0.0     0.0     2.1     0.0     0.0     0.0     0.0     0.0     0.0     0.0     0.0
   15 115    39    0.04    0.00    0.13    0.00    55.8   0.000   0.056   0.000   0.169     1.5     0.0     4.9     0.0     567    0.00    0.57    0.00    2.16     0.0     0.0     0.0     0.0     0.0     0.0     0.0     0.0     0.0    462.      0.     12.     10.     12.     11.     12.     23.     26.     0.5     0.0     0.0     0.0     0.0     0.0     0.0     0.0     0.0     0.0     0.0     0.0     0.0     0.0     0.0     0.0     0.0     0.0     2.0     0.0     0.0     0.0     0.0     0.0     0.0     0.0     0.0
   15 116    40    0.04    0.00    0.14    0.00    56.4   0.000   0.056   0.000   0.171     1.4     0.0     4.4     0.0     523    0.00    0.52    0.00    1.93     0.0     0.0     0.0     0.0     0.0     0.0     0.0     0.0     0.0    418.      0.     11.     10.     11.     11.     12.     24.     26.     0.4     0.0     0.0     0.0     0.0     0.0     0.0     0.0     0.0     0.0     0.0     0.0     0.0     0.0     0.0     0.0     0.0     0.0     1.8     0.0     0.0     0.0     0.0     0.0     0.0     0.0     0.0
   15 117    41    0.04    0.00    0.14    0.00    56.8   0.000   0.057   0.000   0.173     1.3     0.0     3.9     0.0     481    0.00    0.48    0.00    1.70     0.0     0.0     0.0     0.0     0.0     0.0     0.0     0.0     0.0    372.      0.     11.     10.     12.     11.     12.     25.     27.     0.4     0.0     0.0     0.0     0.0     0.0     0.0     0.0     0.0     0.0     0.0     0.0     0.0     0.0     0.0     0.0     0.0     0.0     1.6     0.0     0.0     0.0     0.0     0.0     0.0     0.0     0.0
   15 118    42    0.04    0.00    0.14    0.00    57.2   0.000   0.057   0.000   0.174     1.1     0.0     3.4     0.0     364    0.00    0.36    0.00    1.08     0.0     0.0     0.0     0.0     0.0     0.0     0.0     0.0     0.0    251.      1.     11.     11.     12.     12.     13.     26.     28.     0.3     0.0     0.0     0.0     0.0     0.0     0.0     0.0     0.0     0.0     0.0     0.0     0.0     0.0     0.0     0.0     0.0     0.0     0.9     0.0     0.0     0.0     0.0     0.0     0.0     0.0     0.0
   15 119    43    0.04    0.00    0.14    0.00    57.5   0.000   0.057   0.000   0.174     0.6     0.0     1.7     0.0     265    0.00    0.27    0.00    0.28     0.0     0.0     0.0     0.0     0.0     0.0     0.0     0.0     0.0    148.      1.     11.     11.     12.     12.     13.     28.     29.     0.1     0.0     0.0     0.0     0.0     0.0     0.0     0.0     0.0     0.0     0.0     0.0     0.0     0.0     0.0     0.0     0.0     0.0     0.1     0.0     0.0     0.0     0.0     0.0     0.0     0.0     0.0
   15 120    44    0.04    0.00    0.15    0.00    57.7   0.000   0.058   0.000   0.175     0.9     0.0     2.5     0.0     256    0.00    0.26    0.00    0.53     0.0     0.0     0.0     0.0     0.0     0.0     0.0     0.0     0.0    139.      2.     11.     11.     12.     12.     13.     28.     29.     0.1     0.0     0.0     0.0     0.0     0.0     0.0     0.0     0.0     0.0     0.0     0.0     0.0     0.0     0.0     0.0     0.0     0.0     0.4     0.0     0.0     0.0     0.0     0.0     0.0     0.0     0.0
   15 121    45    0.04    0.00    0.15    0.00    57.9   0.000   0.058   0.000   0.175     0.9     0.0     2.5     0.0     198    0.00    0.20    0.00    0.45     0.0     0.0     0.0     0.0     0.0     0.0     0.0     0.0     0.0     81.      2.     11.     10.     12.     12.     13.     28.     29.     0.1     0.0     0.0     0.0     0.0     0.0     0.0     0.0     0.0     0.0     0.0     0.0     0.0     0.0     0.0     0.0     0.0     0.0     0.3     0.0     0.0     0.0     0.0     0.0     0.0     0.0     0.0
   15 122    46    0.04    0.00    0.15    0.00    58.0   0.000   0.058   0.000   0.175     0.3     0.0     0.8     0.0     127    0.00    0.13    0.00    0.11     0.0     0.0     0.0     0.0     0.0     0.0     0.0     0.0     0.0     27.      1.      6.      7.      9.     11.     12.     26.     28.     0.0     0.0     0.0     0.0     0.0     0.0     0.0     0.0     0.0     0.0     0.0     0.0     0.0     0.0     0.0     0.0     0.0     0.0     0.0     0.0     0.0     0.0     0.0     0.0     0.0     0.0     0.0
   15 123    47    0.04    0.00    0.15    0.00    58.2   0.000   0.058   0.000   0.175     0.4     0.0     1.2     0.0     109    0.00    0.11    0.00    0.10     0.0     0.0     0.0     0.0     0.0     0.0     0.0     0.0     0.0     17.      2.      6.      6.      8.      8.     11.     25.     26.     0.0     0.0     0.0     0.0     0.0     0.0     0.0     0.0     0.0     0.0     0.0     0.0     0.0     0.0     0.0     0.0     0.0     0.0     0.0     0.0     0.0     0.0     0.0     0.0     0.0     0.0     0.0
   15 124    48    0.04    0.00    0.15    0.00    58.3   0.000   0.058   0.000   0.175     0.3     0.0     0.7     0.0     101    0.00    0.10    0.00    0.08     0.0     0.0     0.0     0.0     0.0     0.0     0.0     0.0     0.0      9.      2.      6.      6.      8.      9.      9.     26.     27.     0.0     0.0     0.0     0.0     0.0     0.0     0.0     0.0     0.0     0.0     0.0     0.0     0.0     0.0     0.0     0.0     0.0     0.0     0.0     0.0     0.0     0.0     0.0     0.0     0.0     0.0     0.0
   15 125    49    0.04    0.00    0.15    0.00    58.4   0.000   0.058   0.000   0.175     0.5     0.0     1.3     0.0     113    0.00    0.11    0.00    0.11     0.0     0.0     0.0     0.0     0.0     0.0     0.0     0.0     0.0      5.      3.      8.      8.     10.     11.     11.     29.     29.     0.0     0.0     0.0     0.0     0.0     0.0     0.0     0.0     0.0     0.0     0.0     0.0     0.0     0.0     0.0     0.0     0.0     0.0     0.0     0.0     0.0     0.0     0.0     0.0     0.0     0.0     0.0
   15 126    50    0.05    0.00    0.15    0.02    58.5   0.003   0.058   0.021   0.178     0.5     0.1     1.1    23.7     122    2.58    0.12   21.09    2.86     0.4     3.7     6.3     6.9     6.3     0.0     0.0     0.0     0.0      2.      4.      8.      9.     11.     12.     13.     30.     33.     0.0     0.2     0.6     0.9     0.9     0.0     0.0     0.0     0.0     0.4     3.5     5.7     6.0     5.5     0.0     0.0     0.0     0.0     0.0     0.3     0.8     0.8     0.8     0.0     0.0     0.0     0.0
   15 127    51    0.05    0.00    0.16    0.09    58.6   0.009   0.059   0.078   0.182     0.3     0.2     0.7    63.7     123    6.41    0.12   57.27    3.91     0.6     8.2    21.3    16.1    12.4     5.0     0.0     0.0     0.0      1.      3.      7.      8.     12.     13.     14.     33.     32.     0.0     0.3     1.9     2.0     1.7     0.6     0.0     0.0     0.0     0.6     7.9    19.5    14.1    10.7     4.4     0.0     0.0     0.0     0.0     0.2     1.0     1.1     1.2     0.4     0.0     0.0     0.0
   15 128    52    0.05    0.00    0.16    0.11    58.8   0.011   0.059   0.101   0.184     0.5     0.7     1.2    24.5     145    2.16    0.14   22.33    2.18     0.1     2.6     7.3     6.0     5.2     2.2     1.2     0.0     0.0      1.      6.     10.     11.     14.     16.     16.     37.     35.     0.0     0.1     0.5     0.6     0.7     0.3     0.1     0.0     0.0     0.1     2.5     6.8     5.4     4.6     2.0     1.1     0.0     0.0     0.0     0.1     0.5     0.5     0.7     0.2     0.1     0.0     0.0
   15 129    53    0.05    0.00    0.16    0.12    58.9   0.012   0.059   0.107   0.185     0.7     1.4     1.4     6.6     159    0.54    0.16    6.04    0.85     0.0     0.4     1.6     1.5     1.8     0.8     0.4     0.0     0.0      0.      7.     11.     11.     15.     18.     18.     40.     38.     0.0     0.0     0.1     0.1     0.2     0.1     0.1     0.0     0.0     0.0     0.4     1.6     1.4     1.6     0.7     0.3     0.0     0.0     0.0     0.0     0.2     0.2     0.3     0.1     0.1     0.0     0.0
   15 130    54    0.05    0.00    0.16    0.12    59.1   0.012   0.059   0.111   0.186     0.5     1.5     1.1     4.5     158    0.40    0.16    4.15    0.63     0.0     0.1     0.3     0.6     1.3     1.0     0.6     0.6     0.0      0.      7.      9.     10.     14.     18.     18.     41.     39.     0.0     0.0     0.0     0.1     0.2     0.1     0.1     0.1     0.0     0.0     0.1     0.3     0.5     1.2     0.9     0.5     0.6     0.0     0.0     0.0     0.0     0.1     0.2     0.1     0.1     0.1     0.0
   15 131    55    0.05    0.01    0.16    0.12    59.2   0.012   0.059   0.112   0.186     0.7     2.4     1.3     1.7     151    0.16    0.15    1.56    0.34     0.0     0.0     0.0     0.0     0.1     0.7     0.4     0.4     0.0      0.      6.      9.      9.     12.     18.     18.     40.     39.     0.0     0.0     0.0     0.0     0.0     0.1     0.1     0.1     0.0     0.0     0.0     0.0     0.0     0.1     0.7     0.3     0.4     0.0     0.0     0.0     0.0     0.0     0.0     0.1     0.1     0.1     0.0
   15 132    56    0.05    0.01    0.16    0.13    59.4   0.012   0.059   0.113   0.187     0.7     2.8     1.2     1.0     164    0.09    0.16    0.90    0.29     0.0     0.0     0.0     0.0     0.0     0.5     0.2     0.3     0.0      0.      6.      8.     10.     14.     19.     19.     43.     45.     0.0     0.0     0.0     0.0     0.0     0.1     0.0     0.1     0.0     0.0     0.0     0.0     0.0     0.0     0.5     0.2     0.3     0.0     0.0     0.0     0.0     0.0     0.0     0.1     0.0     0.1     0.0
   15 133    57    0.05    0.01    0.16    0.13    59.6   0.012   0.060   0.114   0.187     0.7     3.1     1.1     0.4     176    0.04    0.18    0.34    0.25     0.0     0.0     0.0     0.0     0.0     0.3     0.0     0.1     0.0      1.      7.      9.     10.     13.     21.     21.     46.     47.     0.0     0.0     0.0     0.0     0.0     0.0     0.0     0.1     0.0     0.0     0.0     0.0     0.0     0.0     0.2     0.0     0.1     0.0     0.0     0.0     0.0     0.0     0.0     0.1     0.0     0.0     0.0
   15 134    58    0.05    0.02    0.16    0.13    59.8   0.012   0.060   0.114   0.187     0.6     2.8     0.9     0.0     193    0.00    0.19    0.02    0.23     0.0     0.0     0.0     0.0     0.0     0.0     0.0     0.0     0.0      0.      7.     10.     10.     12.     23.     26.     55.     49.     0.0     0.0     0.0     0.0     0.0     0.0     0.0     0.1     0.0     0.0     0.0     0.0     0.0     0.0     0.0     0.0     0.0     0.0     0.0     0.0     0.0     0.0     0.0     0.0     0.0     0.1     0.0
   15 135    59    0.05    0.02    0.16    0.13    60.0   0.012   0.060   0.114   0.187     0.8     3.7     1.1     0.0     202    0.00    0.20    0.00    0.24     0.0     0.0     0.0     0.0     0.0     0.0     0.0     0.0     0.0      0.      8.     10.     11.     12.     28.     27.     56.     50.     0.0     0.0     0.0     0.0     0.0     0.0     0.0     0.1     0.1     0.0     0.0     0.0     0.0     0.0     0.0     0.0     0.0     0.0     0.0     0.0     0.0     0.0     0.0     0.0     0.0     0.1     0.0
   15 136    60    0.05    0.02    0.17    0.13    60.2   0.012   0.060   0.114   0.188     0.8     3.8     1.0     0.0     200    0.00    0.20    0.00    0.24     0.0     0.0     0.0     0.0     0.0     0.0     0.0     0.0     0.0      0.      8.     10.     11.     11.     27.     27.     56.     50.     0.0     0.0     0.0     0.0     0.0     0.0     0.0     0.1     0.1     0.0     0.0     0.0     0.0     0.0     0.0     0.0     0.0     0.0     0.0     0.0     0.0     0.0     0.0     0.0     0.0     0.1     0.0
   15 137    61    0.05    0.03    0.17    0.13    60.4   0.012   0.060   0.114   0.188     0.8     3.9     1.0     0.0     200    0.00    0.20    0.00    0.24     0.0     0.0     0.0     0.0     0.0     0.0     0.0     0.0     0.0      1.      8.     10.     10.     11.     26.     27.     56.     51.     0.0     0.0     0.0     0.0     0.0     0.0     0.0     0.1     0.1     0.0     0.0     0.0     0.0     0.0     0.0     0.0     0.0     0.0     0.0     0.0     0.0     0.0     0.0     0.0     0.0     0.1     0.0
   15 138    62    0.05    0.03    0.17    0.13    60.5   0.012   0.061   0.114   0.188     0.8     3.9     0.9     0.0     192    0.00    0.19    0.00    0.23     0.0     0.0     0.0     0.0     0.0     0.0     0.0     0.0     0.0      2.      8.     10.     10.     10.     24.     26.     54.     49.     0.0     0.0     0.0     0.0     0.0     0.0     0.0     0.1     0.0     0.0     0.0     0.0     0.0     0.0     0.0     0.0     0.0     0.0     0.0     0.0     0.0     0.0     0.0     0.0     0.0     0.1     0.0
   15 139    63    0.05    0.03    0.17    0.13    60.7   0.012   0.061   0.114   0.188     0.8     3.9     0.9     0.0     187    0.00    0.19    0.00    0.23     0.0     0.0     0.0     0.0     0.0     0.0     0.0     0.0     0.0      3.      8.     10.     10.      9.     22.     25.     53.     48.     0.0     0.0     0.0     0.0     0.0     0.0     0.0     0.1     0.0     0.0     0.0     0.0     0.0     0.0     0.0     0.0     0.0     0.0     0.0     0.0     0.0     0.0     0.0     0.0     0.0     0.0     0.0
   15 140    64    0.05    0.04    0.17    0.13    60.9   0.012   0.061   0.114   0.188     0.3     1.4     0.3     0.0     180    0.00    0.18    0.00    0.20     0.0     0.0     0.0     0.0     0.0     0.0     0.0     0.0     0.0      2.      5.      8.     10.      9.     21.     25.     52.     47.     0.0     0.0     0.0     0.0     0.0     0.0     0.0     0.1     0.0     0.0     0.0     0.0     0.0     0.0     0.0     0.0     0.0     0.0     0.0     0.0     0.0     0.0     0.0     0.0     0.0     0.0     0.0
   15 141    65    0.05    0.04    0.17    0.13    61.1   0.012   0.061   0.114   0.189     0.2     1.3     0.3     0.0     168    0.00    0.17    0.00    0.17     0.0     0.0     0.0     0.0     0.0     0.0     0.0     0.0     0.0      2.      4.      6.      8.      9.     20.     24.     50.     46.     0.0     0.0     0.0     0.0     0.0     0.0     0.0     0.1     0.0     0.0     0.0     0.0     0.0     0.0     0.0     0.0     0.0     0.0     0.0     0.0     0.0     0.0     0.0     0.0     0.0     0.0     0.0
   15 142    66    0.05    0.04    0.17    0.13    61.2   0.012   0.061   0.114   0.189     0.4     2.0     0.4     0.0     160    0.00    0.16    0.00    0.16     0.0     0.0     0.0     0.0     0.0     0.0     0.0     0.0     0.0      2.      6.      5.      5.      8.     18.     23.     49.     45.     0.0     0.0     0.0     0.0     0.0     0.0     0.0     0.0     0.0     0.0     0.0     0.0     0.0     0.0     0.0     0.0     0.0     0.0     0.0     0.0     0.0     0.0     0.0     0.0     0.0     0.0     0.0
   15 143    67    0.06    0.04    0.17    0.13    61.4   0.012   0.061   0.114   0.189     0.6     3.0     0.7     0.0     147    0.00    0.15    0.00    0.15     0.0     0.0     0.0     0.0     0.0     0.0     0.0     0.0     0.0      0.      5.      5.      5.      6.     17.     22.     46.     43.     0.0     0.0     0.0     0.0     0.0     0.0     0.0     0.0     0.0     0.0     0.0     0.0     0.0     0.0     0.0     0.0     0.0     0.0     0.0     0.0     0.0     0.0     0.0     0.0     0.0     0.0     0.0
   15 144    68    0.06    0.04    0.17    0.13    61.5   0.012   0.062   0.114   0.189     0.5     2.5     0.5     0.0     132    0.00    0.13    0.00    0.13     0.0     0.0     0.0     0.0     0.0     0.0     0.0     0.0     0.0      0.      4.      4.      4.      4.     12.     20.     43.     40.     0.0     0.0     0.0     0.0     0.0     0.0     0.0     0.0     0.0     0.0     0.0     0.0     0.0     0.0     0.0     0.0     0.0     0.0     0.0     0.0     0.0     0.0     0.0     0.0     0.0     0.0     0.0
   15 145    69    0.06    0.05    0.17    0.13    61.6   0.012   0.062   0.114   0.189     0.6     2.9     0.6     0.0     116    0.00    0.12    0.00    0.12     0.0     0.0     0.0     0.0     0.0     0.0     0.0     0.0     0.0      0.      3.      3.      3.      3.     12.     16.     38.     39.     0.0     0.0     0.0     0.0     0.0     0.0     0.0     0.0     0.0     0.0     0.0     0.0     0.0     0.0     0.0     0.0     0.0     0.0     0.0     0.0     0.0     0.0     0.0     0.0     0.0     0.0     0.0
   15 146    70    0.06    0.05    0.17    0.13    61.8   0.012   0.062   0.114   0.189     0.7     3.6     0.8     0.0     121    0.00    0.12    0.01    0.12     0.0     0.0     0.0     0.0     0.0     0.0     0.0     0.0     0.0      0.      2.      3.      3.      3.     12.     18.     40.     40.     0.0     0.0     0.0     0.0     0.0     0.0     0.0     0.0     0.0     0.0     0.0     0.0     0.0     0.0     0.0     0.0     0.0     0.0     0.0     0.0     0.0     0.0     0.0     0.0     0.0     0.0     0.0
   15 147    71    0.06    0.05    0.17    0.13    61.9   0.012   0.062   0.114   0.189     0.8     4.0     0.9     0.0     123    0.00    0.12    0.00    0.13     0.0     0.0     0.0     0.0     0.0     0.0     0.0     0.0     0.0      0.      2.      3.      3.      3.     12.     18.     41.     40.     0.0     0.0     0.0     0.0     0.0     0.0     0.0     0.0     0.0     0.0     0.0     0.0     0.0     0.0     0.0     0.0     0.0     0.0     0.0     0.0     0.0     0.0     0.0     0.0     0.0     0.0     0.0
   15 148    72    0.06    0.06    0.17    0.13    62.0   0.012   0.062   0.114   0.190     0.8     3.8     0.8     0.1     124    0.00    0.12    0.07    0.13     0.0     0.0     0.0     0.0     0.0     0.1     0.0     0.0     0.0      0.      2.      3.      3.      4.     12.     19.     41.     40.     0.0     0.0     0.0     0.0     0.0     0.0     0.0     0.0     0.0     0.0     0.0     0.0     0.0     0.0     0.1     0.0     0.0     0.0     0.0     0.0     0.0     0.0     0.0     0.0     0.0     0.0     0.0
   15 149    73    0.06    0.06    0.17    0.13    62.1   0.012   0.062   0.114   0.190     0.7     3.6     0.8     0.3     131    0.03    0.13    0.28    0.17     0.0     0.0     0.0     0.0     0.0     0.0     0.3     0.0     0.0      0.      2.      3.      4.      4.     12.     19.     46.     40.     0.0     0.0     0.0     0.0     0.0     0.0     0.0     0.0     0.0     0.0     0.0     0.0     0.0     0.0     0.0     0.3     0.0     0.0     0.0     0.0     0.0     0.0     0.0     0.0     0.0     0.0     0.0
   15 150    74    0.06    0.07    0.18    0.13    62.3   0.012   0.062   0.114   0.190     0.7     3.4     0.8     0.3     140    0.02    0.14    0.23    0.18     0.0     0.0     0.0     0.0     0.0     0.0     0.3     0.0     0.0      0.      3.      3.      4.      4.     15.     20.     48.     42.     0.0     0.0     0.0     0.0     0.0     0.0     0.0     0.0     0.0     0.0     0.0     0.0     0.0     0.0     0.0     0.2     0.0     0.0     0.0     0.0     0.0     0.0     0.0     0.0     0.0     0.0     0.0
   15 151    75    0.06    0.07    0.18    0.13    62.4   0.012   0.062   0.114   0.190     0.7     3.2     0.7     0.2     144    0.02    0.14    0.19    0.18     0.0     0.0     0.0     0.0     0.0     0.0     0.2     0.0     0.0      0.      3.      4.      5.      5.     15.     21.     49.     42.     0.0     0.0     0.0     0.0     0.0     0.0     0.0     0.0     0.0     0.0     0.0     0.0     0.0     0.0     0.0     0.2     0.0     0.0     0.0     0.0     0.0     0.0     0.0     0.0     0.0     0.0     0.0
   15 152    76    0.06    0.07    0.18    0.13    62.6   0.012   0.063   0.115   0.190     0.6     3.0     0.7     0.2     153    0.02    0.15    0.15    0.19     0.0     0.0     0.0     0.0     0.0     0.0     0.2     0.0     0.0      1.      4.      4.      5.      5.     15.     22.     51.     44.     0.0     0.0     0.0     0.0     0.0     0.0     0.0     0.1     0.0     0.0     0.0     0.0     0.0     0.0     0.0     0.1     0.0     0.0     0.0     0.0     0.0     0.0     0.0     0.0     0.0     0.0     0.0
   15 153    77    0.06    0.07    0.18    0.13    68.0   0.012   0.068   0.115   0.213     1.6     2.9     4.9     0.1    5410    0.01    5.41    0.10   22.38     0.0     0.0     0.0     0.0     0.0     0.0     0.1     0.0     0.0   5232.      7.      6.      7.      7.     18.     26.     58.     49.     5.2     0.0     0.0     0.0     0.0     0.0     0.0     0.1     0.0     0.0     0.0     0.0     0.0     0.0     0.0     0.1     0.0     0.0    22.2     0.0     0.0     0.0     0.0     0.0     0.0     0.1     0.0
   15 154    78    0.07    0.08    0.19    0.13    72.8   0.012   0.073   0.115   0.232     2.3     2.7     7.7     0.0    4769    0.00    4.77    0.04   19.70     0.0     0.0     0.0     0.0     0.0     0.0     0.0     0.0     0.0   4558.     11.     10.     10.     10.     22.     29.     64.     55.     4.6     0.0     0.0     0.0     0.0     0.0     0.0     0.1     0.1     0.0     0.0     0.0     0.0     0.0     0.0     0.0     0.0     0.0    19.4     0.0     0.0     0.0     0.0     0.0     0.0     0.1     0.1
   15 155    79    0.07    0.08    0.20    0.13    76.4   0.012   0.076   0.115   0.247     2.6     2.5     9.1     0.0    3611    0.00    3.61    0.00   14.82     0.0     0.0     0.0     0.0     0.0     0.0     0.0     0.0     0.0   3364.     15.     13.     13.     13.     25.     38.     70.     60.     3.4     0.0     0.0     0.0     0.0     0.0     0.0     0.1     0.1     0.0     0.0     0.0     0.0     0.0     0.0     0.0     0.0     0.0    14.5     0.1     0.0     0.0     0.0     0.0     0.0     0.1     0.1
   15 156    80    0.07    0.08    0.21    0.13    79.1   0.012   0.079   0.115   0.258     2.7     2.4     9.7     0.0    2689    0.00    2.69    0.00   11.28     0.0     0.0     0.0     0.0     0.0     0.0     0.0     0.0     0.0   2418.     18.     14.     15.     14.     27.     41.     77.     65.     2.4     0.0     0.0     0.0     0.0     0.0     0.0     0.1     0.1     0.0     0.0     0.0     0.0     0.0     0.0     0.0     0.0     0.0    10.9     0.1     0.0     0.0     0.0     0.0     0.0     0.1     0.1
   15 157    81    0.07    0.08    0.22    0.13    81.3   0.012   0.081   0.115   0.268     2.7     2.3     9.9     0.0    2213    0.00    2.21    0.00    9.57     0.0     0.0     0.0     0.0     0.0     0.0     0.0     0.0     0.0   1906.     22.     17.     18.     17.     31.     44.     86.     71.     1.9     0.0     0.0     0.0     0.0     0.0     0.0     0.1     0.1     0.0     0.0     0.0     0.0     0.0     0.0     0.0     0.0     0.0     9.2     0.1     0.0     0.0     0.0     0.0     0.0     0.1     0.1
   15 158    82    0.08    0.09    0.23    0.13    82.6   0.012   0.083   0.115   0.272     2.3     2.1     8.5     0.0    1284    0.00    1.28    0.00    4.49     0.0     0.0     0.0     0.0     0.0     0.0     0.0     0.0     0.0    939.     29.     23.     23.     22.     34.     46.     91.     76.     0.9     0.0     0.0     0.0     0.0     0.0     0.0     0.1     0.1     0.0     0.0     0.0     0.0     0.0     0.0     0.0     0.0     0.0     4.0     0.1     0.1     0.0     0.0     0.0     0.0     0.1     0.1
   15 159    83    0.08    0.09    0.23    0.13    83.4   0.012   0.083   0.115   0.275     2.1     2.0     7.6     0.0     885    0.00    0.88    0.00    2.85     0.0     0.0     0.0     0.0     0.0     0.0     0.0     0.0     0.0    519.     32.     25.     25.     24.     36.     47.     96.     80.     0.5     0.0     0.0     0.0     0.0     0.0     0.0     0.1     0.1     0.0     0.0     0.0     0.0     0.0     0.0     0.0     0.0     0.0     2.4     0.1     0.1     0.0     0.0     0.0     0.0     0.1     0.1
   15 160    84    0.08    0.09    0.24    0.13    83.9   0.012   0.084   0.115   0.276     0.6     0.7     2.2     0.0     435    0.00    0.44    0.00    0.45     0.0     0.0     0.0     0.0     0.0     0.0     0.0     0.0     0.0    101.     10.     24.     25.     24.     35.     44.     94.     79.     0.1     0.0     0.0     0.0     0.0     0.0     0.0     0.1     0.1     0.0     0.0     0.0     0.0     0.0     0.0     0.0     0.0     0.0     0.1     0.0     0.1     0.0     0.0     0.0     0.0     0.1     0.1
   15 161    85    0.08    0.09    0.24    0.13    84.2   0.012   0.084   0.115   0.276     1.1     1.3     3.9     0.0     309    0.00    0.31    0.00    0.36     0.0     0.0     0.0     0.0     0.0     0.0     0.0     0.0     0.0      0.      8.     20.     23.     22.     32.     40.     89.     76.     0.0     0.0     0.0     0.0     0.0     0.0     0.0     0.1     0.1     0.0     0.0     0.0     0.0     0.0     0.0     0.0     0.0     0.0     0.0     0.0     0.0     0.0     0.0     0.0     0.0     0.1     0.1
   15 162    86    0.08    0.09    0.24    0.13    84.5   0.012   0.084   0.115   0.276     1.3     1.6     4.3     0.0     282    0.00    0.28    0.00    0.33     0.0     0.0     0.0     0.0     0.0     0.0     0.0     0.0     0.0      0.      6.     17.     20.     20.     29.     36.     83.     72.     0.0     0.0     0.0     0.0     0.0     0.0     0.0     0.1     0.1     0.0     0.0     0.0     0.0     0.0     0.0     0.0     0.0     0.0     0.0     0.0     0.0     0.0     0.0     0.0     0.0     0.1     0.1
   15 163    87    0.08    0.09    0.25    0.13    84.7   0.012   0.085   0.115   0.277     1.3     1.7     4.3     0.0     268    0.00    0.27    0.00    0.31     0.0     0.0     0.0     0.0     0.0     0.0     0.0     0.0     0.0      0.      6.     15.     19.     18.     28.     33.     80.     69.     0.0     0.0     0.0     0.0     0.0     0.0     0.0     0.1     0.1     0.0     0.0     0.0     0.0     0.0     0.0     0.0     0.0     0.0     0.0     0.0     0.0     0.0     0.0     0.0     0.0     0.1     0.1
   15 164    88    0.08    0.10    0.25    0.13    85.0   0.012   0.085   0.115   0.277     1.1     1.6     3.5     0.0     263    0.00    0.26    0.00    0.31     0.0     0.0     0.0     0.0     0.0     0.0     0.0     0.0     0.0      0.      6.     14.     19.     18.     27.     32.     79.     69.     0.0     0.0     0.0     0.0     0.0     0.0     0.0     0.1     0.1     0.0     0.0     0.0     0.0     0.0     0.0     0.0     0.0     0.0     0.0     0.0     0.0     0.0     0.0     0.0     0.0     0.1     0.1
   15 165    89    0.08    0.10    0.25    0.13    85.3   0.012   0.085   0.115   0.277     0.5     0.8     1.6     0.0     272    0.00    0.27    0.00    0.31     0.0     0.0     0.0     0.0     0.0     0.0     0.0     0.0     0.0      0.      5.     15.     20.     19.     28.     32.     82.     71.     0.0     0.0     0.0     0.0     0.0     0.0     0.0     0.1     0.1     0.0     0.0     0.0     0.0     0.0     0.0     0.0     0.0     0.0     0.0     0.0     0.0     0.0     0.0     0.0     0.0     0.1     0.1
   15 166    90    0.08    0.10    0.25    0.13    85.6   0.012   0.086   0.115   0.278     0.4     0.6     1.2     0.0     294    0.00    0.29    0.00    0.31     0.0     0.0     0.0     0.0     0.0     0.0     0.0     0.0     0.0      2.      9.     10.     21.     21.     31.     34.     89.     76.     0.0     0.0     0.0     0.0     0.0     0.0     0.0     0.1     0.1     0.0     0.0     0.0     0.0     0.0     0.0     0.0     0.0     0.0     0.0     0.0     0.0     0.0     0.0     0.0     0.0     0.1     0.1
   15 167    91    0.08    0.10    0.26    0.13    85.9   0.012   0.086   0.115   0.278     0.3     0.5     1.0     0.0     292    0.00    0.29    0.00    0.29     0.0     0.0     0.0     0.0     0.0     0.0     0.0     0.0     0.0      3.     13.     10.     12.     21.     31.     34.     90.     77.     0.0     0.0     0.0     0.0     0.0     0.0     0.0     0.1     0.1     0.0     0.0     0.0     0.0     0.0     0.0     0.0     0.0     0.0     0.0     0.0     0.0     0.0     0.0     0.0     0.0     0.1     0.1
   15 168    92    0.09    0.10    0.26    0.13    86.1   0.012   0.086   0.115   0.278     0.6     0.9     1.6     0.0     279    0.00    0.28    0.00    0.28     0.0     0.0     0.0     0.0     0.0     0.0     0.0     0.0     0.0      0.     15.     12.     11.     14.     31.     32.     88.     76.     0.0     0.0     0.0     0.0     0.0     0.0     0.0     0.1     0.1     0.0     0.0     0.0     0.0     0.0     0.0     0.0     0.0     0.0     0.0     0.0     0.0     0.0     0.0     0.0     0.0     0.1     0.1
   15 169    93    0.09    0.10    0.26    0.13    86.4   0.012   0.086   0.115   0.279     0.7     1.2     1.9     0.0     254    0.00    0.25    0.00    0.27     0.0     0.0     0.0     0.0     0.0     0.0     0.0     0.0     0.0      0.      9.     10.     11.     11.     27.     30.     83.     72.     0.0     0.0     0.0     0.0     0.0     0.0     0.0     0.1     0.1     0.0     0.0     0.0     0.0     0.0     0.0     0.0     0.0     0.0     0.0     0.0     0.0     0.0     0.0     0.0     0.0     0.1     0.1
   15 170    94    0.09    0.10    0.26    0.13    86.6   0.012   0.087   0.115   0.279     0.2     0.4     0.7     0.0     230    0.00    0.23    0.00    0.23     0.0     0.0     0.0     0.0     0.0     0.0     0.0     0.0     0.0      2.      9.      8.      8.      8.     24.     27.     78.     68.     0.0     0.0     0.0     0.0     0.0     0.0     0.0     0.1     0.1     0.0     0.0     0.0     0.0     0.0     0.0     0.0     0.0     0.0     0.0     0.0     0.0     0.0     0.0     0.0     0.0     0.1     0.1
   15 171    95    0.09    0.10    0.26    0.13    86.8   0.012   0.087   0.115   0.279     0.5     0.8     1.1     0.0     205    0.00    0.20    0.00    0.21     0.0     0.0     0.0     0.0     0.0     0.0     0.0     0.0     0.0      0.      6.      6.      7.      8.     20.     23.     71.     63.     0.0     0.0     0.0     0.0     0.0     0.0     0.0     0.1     0.1     0.0     0.0     0.0     0.0     0.0     0.0     0.0     0.0     0.0     0.0     0.0     0.0     0.0     0.0     0.0     0.0     0.1     0.1
   15 172    96    0.09    0.10    0.26    0.13    87.0   0.012   0.087   0.115   0.279     0.6     1.0     1.3     0.0     190    0.00    0.19    0.00    0.20     0.0     0.0     0.0     0.0     0.0     0.0     0.0     0.0     0.0      0.      4.      4.      6.      7.     18.     21.     69.     61.     0.0     0.0     0.0     0.0     0.0     0.0     0.0     0.1     0.1     0.0     0.0     0.0     0.0     0.0     0.0     0.0     0.0     0.0     0.0     0.0     0.0     0.0     0.0     0.0     0.0     0.1     0.1
   15 173    97    0.09    0.10    0.26    0.13    87.2   0.012   0.087   0.115   0.279     0.6     1.0     1.3     0.0     181    0.00    0.18    0.00    0.19     0.0     0.0     0.0     0.0     0.0     0.0     0.0     0.0     0.0      0.      2.      4.      6.      6.     17.     20.     66.     59.     0.0     0.0     0.0     0.0     0.0     0.0     0.0     0.1     0.1     0.0     0.0     0.0     0.0     0.0     0.0     0.0     0.0     0.0     0.0     0.0     0.0     0.0     0.0     0.0     0.0     0.1     0.1
   15 174    98    0.09    0.10    0.26    0.13    87.4   0.012   0.087   0.115   0.280     0.2     0.3     0.4     0.0     178    0.00    0.18    0.00    0.18     0.0     0.0     0.0     0.0     0.0     0.0     0.0     0.0     0.0      1.      4.      3.      5.      5.     16.     19.     66.     59.     0.0     0.0     0.0     0.0     0.0     0.0     0.0     0.1     0.1     0.0     0.0     0.0     0.0     0.0     0.0     0.0     0.0     0.0     0.0     0.0     0.0     0.0     0.0     0.0     0.0     0.1     0.1
   15 175    99    0.09    0.10    0.26    0.13    87.5   0.012   0.088   0.115   0.280     0.3     0.5     0.6     0.0     173    0.00    0.17    0.00    0.17     0.0     0.0     0.0     0.0     0.0     0.0     0.0     0.0     0.0      1.      4.      4.      5.      5.     13.     18.     65.     58.     0.0     0.0     0.0     0.0     0.0     0.0     0.0     0.1     0.1     0.0     0.0     0.0     0.0     0.0     0.0     0.0     0.0     0.0     0.0     0.0     0.0     0.0     0.0     0.0     0.0     0.1     0.1
   15 176   100    0.09    0.10    0.27    0.13    87.7   0.012   0.088   0.115   0.280     0.4     0.7     0.8     0.0     174    0.00    0.17    0.00    0.18     0.0     0.0     0.0     0.0     0.0     0.0     0.0     0.0     0.0      0.      3.      3.      5.      6.     15.     18.     66.     58.     0.0     0.0     0.0     0.0     0.0     0.0     0.0     0.1     0.1     0.0     0.0     0.0     0.0     0.0     0.0     0.0     0.0     0.0     0.0     0.0     0.0     0.0     0.0     0.0     0.0     0.1     0.1
   15 177   101    0.09    0.11    0.27    0.13    87.9   0.012   0.088   0.115   0.280     0.5     0.9     1.0     0.0     177    0.00    0.18    0.00    0.19     0.0     0.0     0.0     0.0     0.0     0.0     0.0     0.0     0.0      0.      3.      4.      6.      6.     15.     18.     67.     59.     0.0     0.0     0.0     0.0     0.0     0.0     0.0     0.1     0.1     0.0     0.0     0.0     0.0     0.0     0.0     0.0     0.0     0.0     0.0     0.0     0.0     0.0     0.0     0.0     0.0     0.1     0.1
   15 178   102    0.09    0.11    0.27    0.13    88.1   0.012   0.088   0.115   0.280     0.5     0.8     0.8     0.0     186    0.00    0.19    0.00    0.20     0.0     0.0     0.0     0.0     0.0     0.0     0.0     0.0     0.0      0.      4.      4.      7.      7.     16.     19.     69.     61.     0.0     0.0     0.0     0.0     0.0     0.0     0.0     0.1     0.1     0.0     0.0     0.0     0.0     0.0     0.0     0.0     0.0     0.0     0.0     0.0     0.0     0.0     0.0     0.0     0.0     0.1     0.1
   15 179   103    0.09    0.11    0.27    0.13    88.3   0.012   0.088   0.115   0.281     0.4     0.7     0.7     0.0     197    0.00    0.20    0.00    0.22     0.0     0.0     0.0     0.0     0.0     0.0     0.0     0.0     0.0      1.      6.      6.      8.      8.     17.     19.     71.     62.     0.0     0.0     0.0     0.0     0.0     0.0     0.0     0.1     0.1     0.0     0.0     0.0     0.0     0.0     0.0     0.0     0.0     0.0     0.0     0.0     0.0     0.0     0.0     0.0     0.0     0.1     0.1
   15 180   104    0.09    0.11    0.27    0.13    88.5   0.012   0.088   0.115   0.281     0.4     0.7     0.7     0.0     216    0.00    0.22    0.00    0.26     0.0     0.0     0.0     0.0     0.0     0.0     0.0     0.0     0.0      4.      8.      7.      9.      9.     18.     21.     75.     65.     0.0     0.0     0.0     0.0     0.0     0.0     0.0     0.1     0.1     0.0     0.0     0.0     0.0     0.0     0.0     0.0     0.0     0.0     0.0     0.0     0.0     0.0     0.0     0.0     0.0     0.1     0.1
   15 181   105    0.09    0.11    0.27    0.13    88.7   0.012   0.089   0.115   0.281     0.4     0.6     0.6     0.0     241    0.00    0.24    0.00    0.30     0.0     0.0     0.0     0.0     0.0     0.0     0.0     0.0     0.0      7.     11.      9.     11.     11.     21.     22.     80.     69.     0.0     0.0     0.0     0.0     0.0     0.0     0.0     0.1     0.1     0.0     0.0     0.0     0.0     0.0     0.0     0.0     0.0     0.0     0.0     0.0     0.0     0.0     0.0     0.0     0.0     0.1     0.1
   15 182   106    0.09    0.11    0.27    0.13    89.0   0.012   0.089   0.115   0.281     0.4     0.6     0.6     0.0     278    0.00    0.28    0.00    0.38     0.0     0.0     0.0     0.0     0.0     0.0     0.0     0.0     0.0     11.     15.     12.     14.     14.     24.     25.     88.     75.     0.0     0.0     0.0     0.0     0.0     0.0     0.0     0.1     0.1     0.0     0.0     0.0     0.0     0.0     0.0     0.0     0.0     0.0     0.1     0.1     0.0     0.0     0.0     0.0     0.0     0.1     0.1
   15 183   107    0.09    0.11    0.27    0.13    89.3   0.012   0.089   0.115   0.282     0.4     0.5     0.5     0.0     313    0.00    0.31    0.00    0.44     0.0     0.0     0.0     0.0     0.0     0.0     0.0     0.0     0.0     13.     21.     15.     18.     17.     27.     28.     94.     80.     0.0     0.0     0.0     0.0     0.0     0.0     0.0     0.1     0.1     0.0     0.0     0.0     0.0     0.0     0.0     0.0     0.0     0.0     0.1     0.1     0.0     0.0     0.0     0.0     0.0     0.1     0.1
   15 184   108    0.09    0.11    0.28    0.13    96.6   0.012   0.097   0.115   0.320     1.8     0.5     8.4     0.0    7266    0.00    7.27    0.00   38.30     0.0     0.0     0.0     0.0     0.0     0.0     0.0     0.0     0.0   6932.     27.     20.     22.     20.     30.     31.    100.     85.     6.9     0.0     0.0     0.0     0.0     0.0     0.0     0.1     0.1     0.0     0.0     0.0     0.0     0.0     0.0     0.0     0.0     0.0    37.9     0.1     0.0     0.0     0.0     0.0     0.0     0.1     0.1
   15 185   109    0.10    0.11    0.29    0.13   102.8   0.012   0.103   0.115   0.354     2.7     0.4    13.8     0.0    6258    0.00    6.26    0.00   33.45     0.0     0.0     0.0     0.0     0.0     0.0     0.0     0.0     0.0   5884.     33.     25.     26.     24.     34.     34.    107.     90.     5.9     0.0     0.0     0.0     0.0     0.0     0.0     0.1     0.1     0.0     0.0     0.0     0.0     0.0     0.0     0.0     0.0     0.0    32.9     0.1     0.1     0.0     0.0     0.0     0.0     0.1     0.1
   15 186   110    0.10    0.11    0.31    0.13   108.0   0.012   0.108   0.115   0.381     3.3     0.4    16.9     0.0    5146    0.00    5.15    0.00   27.61     0.0     0.0     0.0     0.0     0.0     0.0     0.0     0.0     0.0   4731.     38.     30.     30.     28.     39.     38.    115.     96.     4.7     0.0     0.0     0.0     0.0     0.0     0.0     0.1     0.1     0.0     0.0     0.0     0.0     0.0     0.0     0.0     0.0     0.0    27.0     0.1     0.1     0.0     0.0     0.0     0.0     0.1     0.1
   15 187   111    0.10    0.11    0.33    0.13   111.7   0.012   0.112   0.115   0.401     3.3     0.4    17.6     0.0    3707    0.00    3.71    0.00   19.59     0.0     0.0     0.0     0.0     0.0     0.0     0.0     0.0     0.0   3258.     42.     34.     33.     31.     44.     42.    122.    102.     3.3     0.0     0.0     0.0     0.0     0.0     0.0     0.1     0.1     0.0     0.0     0.0     0.0     0.0     0.0     0.0     0.0     0.0    19.0     0.2     0.1     0.0     0.0     0.0     0.0     0.1     0.1
   15 188   112    0.11    0.11    0.34    0.13   113.0   0.012   0.113   0.115   0.406     2.9     0.3    15.0     0.0    1281    0.00    1.28    0.00    5.48     0.0     0.0     0.0     0.0     0.0     0.0     0.0     0.0     0.0    814.     43.     37.     35.     33.     46.     44.    125.    105.     0.8     0.0     0.0     0.0     0.0     0.0     0.0     0.1     0.1     0.0     0.0     0.0     0.0     0.0     0.0     0.0     0.0     0.0     4.8     0.2     0.1     0.1     0.0     0.0     0.0     0.1     0.1
   15 189   113    0.11    0.11    0.35    0.13   113.7   0.012   0.114   0.115   0.408     2.1     0.3    10.7     0.0     693    0.00    0.69    0.00    1.65     0.0     0.0     0.0     0.0     0.0     0.0     0.0     0.0     0.0    206.     44.     39.     37.     34.     48.     47.    130.    108.     0.2     0.0     0.0     0.0     0.0     0.0     0.0     0.1     0.1     0.0     0.0     0.0     0.0     0.0     0.0     0.0     0.0     0.0     0.9     0.2     0.1     0.1     0.1     0.1     0.1     0.1     0.1
   15 190   114    0.11    0.11    0.36    0.13   114.2   0.012   0.114   0.115   0.409     1.7     0.2     8.5     0.0     535    0.00    0.53    0.00    0.95     0.0     0.0     0.0     0.0     0.0     0.0     0.0     0.0     0.0     70.     38.     38.     35.     33.     47.     47.    123.    104.     0.1     0.0     0.0     0.0     0.0     0.0     0.0     0.1     0.1     0.0     0.0     0.0     0.0     0.0     0.0     0.0     0.0     0.0     0.3     0.1     0.1     0.1     0.0     0.1     0.1     0.1     0.1
   15 191   115    0.11    0.11    0.37    0.13   114.7   0.012   0.115   0.115   0.410     1.4     0.2     7.0     0.0     444    0.00    0.44    0.00    0.71     0.0     0.0     0.0     0.0     0.0     0.0     0.0     0.0     0.0     27.     34.     33.     30.     29.     42.     43.    111.     96.     0.0     0.0     0.0     0.0     0.0     0.0     0.0     0.1     0.1     0.0     0.0     0.0     0.0     0.0     0.0     0.0     0.0     0.0     0.1     0.1     0.1     0.0     0.0     0.0     0.0     0.1     0.1
   15 192   116    0.11    0.11    0.37    0.13   115.0   0.012   0.115   0.115   0.410     1.2     0.2     5.8     0.0     395    0.00    0.40    0.00    0.62     0.0     0.0     0.0     0.0     0.0     0.0     0.0     0.0     0.0     20.     30.     29.     26.     25.     38.     39.    100.     87.     0.0     0.0     0.0     0.0     0.0     0.0     0.0     0.1     0.1     0.0     0.0     0.0     0.0     0.0     0.0     0.0     0.0     0.0     0.1     0.1     0.1     0.0     0.0     0.0     0.0     0.1     0.1
   15 193   117    0.11    0.11    0.38    0.13   115.4   0.012   0.115   0.115   0.411     1.1     0.2     4.9     0.0     372    0.00    0.37    0.00    0.57     0.0     0.0     0.0     0.0     0.0     0.0     0.0     0.0     0.0     14.     28.     28.     25.     24.     36.     38.     95.     84.     0.0     0.0     0.0     0.0     0.0     0.0     0.0     0.1     0.1     0.0     0.0     0.0     0.0     0.0     0.0     0.0     0.0     0.0     0.1     0.1     0.1     0.0     0.0     0.0     0.0     0.1     0.1
   15 194   118    0.11    0.11    0.38    0.13   115.8   0.012   0.116   0.115   0.411     1.0     0.2     4.2     0.0     344    0.00    0.34    0.00    0.53     0.0     0.0     0.0     0.0     0.0     0.0     0.0     0.0     0.0      9.     25.     26.     23.     22.     33.     36.     90.     80.     0.0     0.0     0.0     0.0     0.0     0.0     0.0     0.1     0.1     0.0     0.0     0.0     0.0     0.0     0.0     0.0     0.0     0.0     0.0     0.1     0.1     0.0     0.0     0.0     0.0     0.1     0.1
   15 195   119    0.11    0.11    0.39    0.13   116.1   0.012   0.116   0.115   0.412     0.8     0.2     3.4     0.0     341    0.00    0.34    0.00    0.52     0.0     0.0     0.0     0.0     0.0     0.0     0.0     0.0     0.0      9.     24.     26.     23.     22.     33.     36.     90.     79.     0.0     0.0     0.0     0.0     0.0     0.0     0.0     0.1     0.1     0.0     0.0     0.0     0.0     0.0     0.0     0.0     0.0     0.0     0.0     0.1     0.1     0.0     0.0     0.0     0.0     0.1     0.1
   15 196   120    0.12    0.11    0.39    0.13   116.5   0.012   0.116   0.115   0.412     0.7     0.2     2.9     0.0     359    0.00    0.36    0.00    0.55     0.0     0.0     0.0     0.0     0.0     0.0     0.0     0.0     0.0      8.     25.     27.     24.     23.     35.     38.     96.     83.     0.0     0.0     0.0     0.0     0.0     0.0     0.0     0.1     0.1     0.0     0.0     0.0     0.0     0.0     0.0     0.0     0.0     0.0     0.0     0.1     0.1     0.0     0.0     0.0     0.0     0.1     0.1
   15 197   121    0.12    0.11    0.39    0.13   116.8   0.012   0.117   0.115   0.413     0.6     0.1     2.4     0.0     380    0.00    0.38    0.00    0.58     0.0     0.0     0.0     0.0     0.0     0.0     0.0     0.0     0.0      8.     26.     29.     25.     24.     36.     40.    103.     88.     0.0     0.0     0.0     0.0     0.0     0.0     0.0     0.1     0.1     0.0     0.0     0.0     0.0     0.0     0.0     0.0     0.0     0.0     0.0     0.1     0.1     0.0     0.0     0.0     0.0     0.1     0.1
   15 198   122    0.12    0.11    0.39    0.13   117.2   0.012   0.117   0.115   0.414     0.6     0.1     2.0     0.0     387    0.00    0.39    0.00    0.59     0.0     0.0     0.0     0.0     0.0     0.0     0.0     0.0     0.0      7.     25.     29.     26.     24.     37.     40.    107.     91.     0.0     0.0     0.0     0.0     0.0     0.0     0.0     0.1     0.1     0.0     0.0     0.0     0.0     0.0     0.0     0.0     0.0     0.0     0.0     0.1     0.1     0.0     0.0     0.0     0.0     0.1     0.1
   15 199   123    0.12    0.11    0.40    0.13   117.6   0.012   0.118   0.115   0.414     0.5     0.1     1.7     0.0     395    0.00    0.40    0.00    0.60     0.0     0.0     0.0     0.0     0.0     0.0     0.0     0.0     0.0      7.     24.     30.     26.     25.     37.     40.    112.     95.     0.0     0.0     0.0     0.0     0.0     0.0     0.0     0.1     0.1     0.0     0.0     0.0     0.0     0.0     0.0     0.0     0.0     0.0     0.0     0.1     0.1     0.0     0.0     0.0     0.0     0.1     0.1
   15 200   124    0.12    0.11    0.40    0.13   118.0   0.012   0.118   0.115   0.415     0.5     0.1     1.5     0.0     400    0.00    0.40    0.00    0.60     0.0     0.0     0.0     0.0     0.0     0.0     0.0     0.0     0.0      6.     23.     30.     26.     24.     36.     40.    116.     98.     0.0     0.0     0.0     0.0     0.0     0.0     0.0     0.1     0.1     0.0     0.0     0.0     0.0     0.0     0.0     0.0     0.0     0.0     0.0     0.1     0.1     0.0     0.0     0.0     0.0     0.1     0.1
   15 201   125    0.12    0.11    0.40    0.13   118.4   0.012   0.118   0.115   0.415     0.4     0.1     1.3     0.0     396    0.00    0.40    0.00    0.59     0.0     0.0     0.0     0.0     0.0     0.0     0.0     0.0     0.0      6.     22.     28.     25.     23.     35.     39.    118.    100.     0.0     0.0     0.0     0.0     0.0     0.0     0.0     0.1     0.1     0.0     0.0     0.0     0.0     0.0     0.0     0.0     0.0     0.0     0.0     0.1     0.1     0.0     0.0     0.0     0.0     0.1     0.1
   15 202   126    0.12    0.11    0.40    0.13   118.8   0.012   0.119   0.115   0.416     0.4     0.1     1.1     0.0     391    0.00    0.39    0.00    0.58     0.0     0.0     0.0     0.0     0.0     0.0     0.0     0.0     0.0      5.     21.     27.     23.     22.     34.     38.    120.    101.     0.0     0.0     0.0     0.0     0.0     0.0     0.0     0.1     0.1     0.0     0.0     0.0     0.0     0.0     0.0     0.0     0.0     0.0     0.0     0.1     0.1     0.0     0.0     0.0     0.0     0.1     0.1
   15 203   127    0.12    0.11    0.40    0.13   119.2   0.012   0.119   0.115   0.417     0.4     0.1     1.0     0.0     390    0.00    0.39    0.00    0.57     0.0     0.0     0.0     0.0     0.0     0.0     0.0     0.0     0.0      4.     20.     26.     23.     22.     32.     37.    123.    103.     0.0     0.0     0.0     0.0     0.0     0.0     0.0     0.1     0.1     0.0     0.0     0.0     0.0     0.0     0.0     0.0     0.0     0.0     0.0     0.1     0.1     0.0     0.0     0.0     0.0     0.1     0.1
   15 204   128    0.12    0.11    0.40    0.13   119.6   0.012   0.120   0.115   0.418     0.4     0.1     0.9     0.0     383    0.00    0.38    0.00    1.38     0.0     0.0     0.0     0.0     0.0     0.0     0.0     0.0     0.0      4.     18.     25.     22.     21.     31.     35.    123.    104.     0.0     0.0     0.0     0.0     0.0     0.0     0.0     0.1     0.1     0.0     0.0     0.0     0.0     0.0     0.0     0.0     0.0     0.0     0.1     0.2     0.2     0.1     0.1     0.1     0.1     0.3     0.2
   15 205   129    0.12    0.11    0.40    0.13   120.0   0.012   0.120   0.115   0.419     0.4     0.1     0.8     0.0     372    0.00    0.37    0.00    0.91     0.0     0.0     0.0     0.0     0.0     0.0     0.0     0.0     0.0      4.     17.     23.     20.     20.     29.     33.    122.    103.     0.0     0.0     0.0     0.0     0.0     0.0     0.0     0.1     0.1     0.0     0.0     0.0     0.0     0.0     0.0     0.0     0.0     0.0     0.0     0.1     0.1     0.1     0.1     0.1     0.1     0.2     0.2
   15 206   130    0.12    0.11    0.40    0.13   120.3   0.012   0.120   0.115   0.419     0.3     0.1     0.7     0.0     364    0.00    0.36    0.00    0.60     0.0     0.0     0.0     0.0     0.0     0.0     0.0     0.0     0.0      5.     16.     22.     19.     18.     27.     32.    122.    103.     0.0     0.0     0.0     0.0     0.0     0.0     0.0     0.1     0.1     0.0     0.0     0.0     0.0     0.0     0.0     0.0     0.0     0.0     0.0     0.1     0.1     0.0     0.0     0.0     0.0     0.1     0.1
   15 207   131    0.12    0.11    0.40    0.13   120.7   0.012   0.121   0.115   0.420     0.3     0.1     0.7     0.0     343    0.00    0.34    0.00    0.48     0.0     0.0     0.0     0.0     0.0     0.0     0.0     0.0     0.0      4.     15.     20.     17.     17.     24.     29.    117.    100.     0.0     0.0     0.0     0.0     0.0     0.0     0.0     0.1     0.1     0.0     0.0     0.0     0.0     0.0     0.0     0.0     0.0     0.0     0.0     0.1     0.1     0.0     0.0     0.0     0.0     0.1     0.1
   15 208   132    0.12    0.11    0.40    0.13   121.0   0.012   0.121   0.115   0.420     0.3     0.1     0.6     0.0     310    0.00    0.31    0.00    0.43     0.0     0.0     0.0     0.0     0.0     0.0     0.0     0.0     0.0      3.     13.     17.     15.     14.     21.     26.    108.     93.     0.0     0.0     0.0     0.0     0.0     0.0     0.0     0.1     0.1     0.0     0.0     0.0     0.0     0.0     0.0     0.0     0.0     0.0     0.0     0.1     0.1     0.0     0.0     0.0     0.0     0.1     0.1
   15 209   133    0.12    0.11    0.41    0.13   121.3   0.012   0.121   0.115   0.421     0.3     0.0     0.6     0.0     286    0.00    0.29    0.00    0.40     0.0     0.0     0.0     0.0     0.0     0.0     0.0     0.0     0.0      4.     11.     15.     13.     13.     18.     24.    100.     88.     0.0     0.0     0.0     0.0     0.0     0.0     0.0     0.1     0.1     0.0     0.0     0.0     0.0     0.0     0.0     0.0     0.0     0.0     0.0     0.1     0.0     0.0     0.0     0.0     0.0     0.1     0.1
   15 210   134    0.12    0.11    0.41    0.13   121.5   0.012   0.122   0.115   0.421     0.3     0.0     0.5     0.0     276    0.00    0.28    0.00    0.39     0.0     0.0     0.0     0.0     0.0     0.0     0.0     0.0     0.0      7.     10.     14.     12.     12.     17.     23.     97.     85.     0.0     0.0     0.0     0.0     0.0     0.0     0.0     0.1     0.1     0.0     0.0     0.0     0.0     0.0     0.0     0.0     0.0     0.0     0.0     0.0     0.0     0.0     0.0     0.0     0.0     0.1     0.1
   15 211   135    0.12    0.11    0.41    0.13   121.8   0.012   0.122   0.115   0.421     0.3     0.0     0.5     0.0     255    0.00    0.26    0.00    0.36     0.0     0.0     0.0     0.0     0.0     0.0     0.0     0.0     0.0      7.      9.     12.     11.     11.     15.     21.     90.     80.     0.0     0.0     0.0     0.0     0.0     0.0     0.0     0.1     0.1     0.0     0.0     0.0     0.0     0.0     0.0     0.0     0.0     0.0     0.0     0.0     0.0     0.0     0.0     0.0     0.0     0.1     0.1
   15 212   136    0.12    0.11    0.41    0.13   122.0   0.012   0.122   0.115   0.422     0.3     0.0     0.5     0.0     241    0.00    0.24    0.00    0.34     0.0     0.0     0.0     0.0     0.0     0.0     0.0     0.0     0.0      6.      9.     11.     10.     10.     13.     19.     86.     76.     0.0     0.0     0.0     0.0     0.0     0.0     0.0     0.1     0.1     0.0     0.0     0.0     0.0     0.0     0.0     0.0     0.0     0.0     0.0     0.0     0.0     0.0     0.0     0.0     0.0     0.1     0.1
   15 213   137    0.12    0.11    0.41    0.13   122.3   0.012   0.122   0.115   0.422     0.3     0.0     0.5     0.0     240    0.00    0.24    0.00    0.34     0.0     0.0     0.0     0.0     0.0     0.0     0.0     0.0     0.0      8.      9.     11.     10.     10.     13.     19.     85.     76.     0.0     0.0     0.0     0.0     0.0     0.0     0.0     0.1     0.1     0.0     0.0     0.0     0.0     0.0     0.0     0.0     0.0     0.0     0.0     0.0     0.0     0.0     0.0     0.0     0.0     0.1     0.1
   15 214   138    0.12    0.11    0.41    0.13   122.5   0.012   0.123   0.115   0.422     0.3     0.0     0.5     0.0     236    0.00    0.24    0.00    0.34     0.0     0.0     0.0     0.0     0.0     0.0     0.0     0.0     0.0      8.      9.     11.     10.      9.     13.     18.     84.     75.     0.0     0.0     0.0     0.0     0.0     0.0     0.0     0.1     0.1     0.0     0.0     0.0     0.0     0.0     0.0     0.0     0.0     0.0     0.0     0.0     0.0     0.0     0.0     0.0     0.0     0.1     0.1
   15 215   139    0.12    0.11    0.41    0.13   122.7   0.012   0.123   0.115   0.423     0.3     0.0     0.5     0.0     237    0.00    0.24    0.00    0.34     0.0     0.0     0.0     0.0     0.0     0.0     0.0     0.0     0.0      8.      9.     11.     10.      9.     13.     18.     85.     75.     0.0     0.0     0.0     0.0     0.0     0.0     0.0     0.1     0.1     0.0     0.0     0.0     0.0     0.0     0.0     0.0     0.0     0.0     0.0     0.0     0.0     0.0     0.0     0.0     0.0     0.1     0.1
   15 216   140    0.12    0.11    0.41    0.13   123.0   0.012   0.123   0.115   0.423     0.3     0.0     0.5     0.0     248    0.00    0.25    0.00    0.36     0.0     0.0     0.0     0.0     0.0     0.0     0.0     0.0     0.0      8.      9.     12.     10.     10.     13.     19.     89.     78.     0.0     0.0     0.0     0.0     0.0     0.0     0.0     0.1     0.1     0.0     0.0     0.0     0.0     0.0     0.0     0.0     0.0     0.0     0.0     0.0     0.0     0.0     0.0     0.0     0.0     0.1     0.1
   15 217   141    0.12    0.11    0.41    0.13   123.3   0.012   0.123   0.115   0.424     0.3     0.0     0.5     0.0     267    0.00    0.27    0.00    0.39     0.0     0.0     0.0     0.0     0.0     0.0     0.0     0.0     0.0      9.     10.     13.     11.     11.     14.     21.     95.     83.     0.0     0.0     0.0     0.0     0.0     0.0     0.0     0.1     0.1     0.0     0.0     0.0     0.0     0.0     0.0     0.0     0.0     0.0     0.1     0.0     0.0     0.0     0.0     0.0     0.0     0.1     0.1
   15 218   142    0.12    0.11    0.41    0.13   123.5   0.012   0.124   0.115   0.424     0.3     0.0     0.5     0.0     281    0.00    0.28    0.00    0.42     0.0     0.0     0.0     0.0     0.0     0.0     0.0     0.0     0.0      9.     11.     14.     12.     12.     15.     22.    101.     87.     0.0     0.0     0.0     0.0     0.0     0.0     0.0     0.1     0.1     0.0     0.0     0.0     0.0     0.0     0.0     0.0     0.0     0.0     0.1     0.1     0.0     0.0     0.0     0.0     0.0     0.1     0.1
   15 219   143    0.12    0.11    0.41    0.13   123.8   0.012   0.124   0.115   0.424     0.3     0.0     0.5     0.0     301    0.00    0.30    0.00    0.45     0.0     0.0     0.0     0.0     0.0     0.0     0.0     0.0     0.0      9.     12.     15.     13.     12.     15.     23.    108.     92.     0.0     0.0     0.0     0.0     0.0     0.0     0.0     0.1     0.1     0.0     0.0     0.0     0.0     0.0     0.0     0.0     0.0     0.0     0.1     0.1     0.0     0.0     0.0     0.0     0.0     0.1     0.1
   15 220   144    0.12    0.11    0.41    0.13   124.2   0.012   0.124   0.115   0.425     0.3     0.0     0.5     0.0     318    0.00    0.32    0.00    0.46     0.0     0.0     0.0     0.0     0.0     0.0     0.0     0.0     0.0      7.     14.     16.     14.     13.     16.     25.    115.     97.     0.0     0.0     0.0     0.0     0.0     0.0     0.0     0.1     0.1     0.0     0.0     0.0     0.0     0.0     0.0     0.0     0.0     0.0     0.0     0.1     0.1     0.0     0.0     0.0     0.0     0.1     0.1
   15 221   145    0.12    0.11    0.41    0.13   124.5   0.012   0.124   0.115   0.425     0.3     0.0     0.5     0.0     335    0.00    0.33    0.00    0.48     0.0     0.0     0.0     0.0     0.0     0.0     0.0     0.0     0.0      7.     14.     17.     15.     14.     17.     26.    122.    102.     0.0     0.0     0.0     0.0     0.0     0.0     0.0     0.1     0.1     0.0     0.0     0.0     0.0     0.0     0.0     0.0     0.0     0.0     0.0     0.1     0.1     0.0     0.0     0.0     0.0     0.1     0.1
   15 222   146    0.13    0.11    0.41    0.13   124.8   0.012   0.125   0.115   0.426     0.3     0.0     0.5     0.0     345    0.00    0.34    0.00    0.49     0.0     0.0     0.0     0.0     0.0     0.0     0.0     0.0     0.0      6.     15.     18.     15.     14.     17.     27.    126.    106.     0.0     0.0     0.0     0.0     0.0     0.0     0.0     0.1     0.1     0.0     0.0     0.0     0.0     0.0     0.0     0.0     0.0     0.0     0.0     0.1     0.1     0.0     0.0     0.0     0.0     0.1     0.1
   15 223   147    0.13    0.11    0.41    0.13   125.2   0.012   0.125   0.115   0.426     0.3     0.0     0.5     0.0     353    0.00    0.35    0.00    0.50     0.0     0.0     0.0     0.0     0.0     0.0     0.0     0.0     0.0      5.     15.     18.     15.     15.     18.     28.    130.    109.     0.0     0.0     0.0     0.0     0.0     0.0     0.0     0.1     0.1     0.0     0.0     0.0     0.0     0.0     0.0     0.0     0.0     0.0     0.0     0.1     0.1     0.0     0.0     0.0     0.0     0.1     0.1
   15 224   148    0.13    0.11    0.41    0.13   125.5   0.012   0.126   0.115   0.427     0.3     0.0     0.5     0.0     354    0.00    0.35    0.00    0.50     0.0     0.0     0.0     0.0     0.0     0.0     0.0     0.0     0.0      5.     15.     18.     15.     15.     18.     28.    131.    110.     0.0     0.0     0.0     0.0     0.0     0.0     0.0     0.1     0.1     0.0     0.0     0.0     0.0     0.0     0.0     0.0     0.0     0.0     0.0     0.1     0.1     0.0     0.0     0.0     0.0     0.1     0.1

*DSSAT Cropping System Model Ver. 4.8.5.000 -release  OCT 27, 2025 22:35:44

*RUN   2        : 2                         WHAPS048 TUDU1501    2
 MODEL          : WHAPS048 - Wheat
 EXPERIMENT     : TUDU1501 WH
 DATA PATH      :
 TREATMENT  2   : 2                         WHAPS048
  
!              |------------------------------ Cumulative -----------------------------|------------------------------ Daily ----------------------------------|
!               N2Oemit  N2emit  NOemit   Denit  Nitrif   N2O-denit+nit      N2      NO N2Oemit  N2emit  NOemit   Denit  Nitrif   N2O-denit+nit      N2      NO   Denitrification (g[N]/ha) by soil depth (cm):                           Nitrification (g[N]/ha) by soil depth (cm):                             N2O flux (g[N]/ha) by soil depth (cm):                                  N2 flux (g[N]/ha) by soil depth (cm):                                   NO flux (g[N]/ha) by soil depth (cm):
[...]
   15 187   111    0.04    0.05    0.08    0.07    44.5   0.005   0.045   0.061   0.091     0.3     0.5     0.5     0.0     501    0.00    0.50    0.00    0.79     0.0     0.0     0.0     0.0     0.0     0.0     0.0     0.0     0.0     18.     50.     39.     38.     37.     48.     46.    123.    103.     0.0     0.0     0.0     0.0     0.0     0.0     0.0     0.1     0.1     0.0     0.0     0.0     0.0     0.0     0.0     0.0     0.0     0.0     0.1     0.2     0.1     0.1     0.1     0.1     0.0     0.1     0.1
   15 188   112    0.04    0.05    0.08    0.07    45.0   0.005   0.045   0.061   0.091     0.3     0.5     0.5     0.0     520    0.00    0.52    0.00    0.82     0.0     0.0     0.0     0.0     0.0     0.0     0.0     0.0     0.0     17.     51.     41.     40.     39.     50.     48.    127.    106.     0.0     0.1     0.0     0.0     0.0     0.1     0.0     0.1     0.1     0.0     0.0     0.0     0.0     0.0     0.0     0.0     0.0     0.0     0.1     0.2     0.1     0.1     0.1     0.1     0.1     0.1     0.1
   15 189   113    0.04    0.05    0.08    0.07    45.5   0.005   0.046   0.061   0.092     0.3     0.4     0.4     0.0     552    0.00    0.55    0.00    0.87     0.0     0.0     0.0     0.0     0.0     0.0     0.0     0.0     0.0     26.     53.     44.     42.     42.     53.     50.    131.    110.     0.0     0.1     0.0     0.0     0.0     0.1     0.1     0.1     0.1     0.0     0.0     0.0     0.0     0.0     0.0     0.0     0.0     0.0     0.1     0.2     0.1     0.1     0.1     0.1     0.1     0.1     0.1
   15 190   114    0.04    0.05    0.08    0.07    46.0   0.005   0.046   0.061   0.093     0.3     0.4     0.4     0.0     500    0.00    0.50    0.00    0.72     0.0     0.0     0.0     0.0     0.0     0.0     0.0     0.0     0.0      6.     46.     41.     39.     39.     50.     48.    125.    106.     0.0     0.0     0.0     0.0     0.0     0.1     0.0     0.1     0.1     0.0     0.0     0.0     0.0     0.0     0.0     0.0     0.0     0.0     0.0     0.2     0.1     0.1     0.1     0.1     0.1     0.1     0.1
   15 191   115    0.04    0.05    0.08    0.07    46.5   0.005   0.047   0.061   0.094     0.3     0.4     0.4     0.0     448    0.00    0.45    0.00    0.65     0.0     0.0     0.0     0.0     0.0     0.0     0.0     0.0     0.0     10.     39.     35.     34.     34.     44.     43.    112.     97.     0.0     0.0     0.0     0.0     0.0     0.0     0.0     0.1     0.1     0.0     0.0     0.0     0.0     0.0     0.0     0.0     0.0     0.0     0.0     0.1     0.1     0.0     0.0     0.0     0.0     0.1     0.1
   15 192   116    0.04    0.05    0.08    0.07    46.9   0.005   0.047   0.061   0.094     0.3     0.3     0.5     0.0     400    0.00    0.40    0.00    0.59     0.0     0.0     0.0     0.0     0.0     0.0     0.0     0.0     0.0     12.     33.     30.     29.     30.     39.     38.    101.     89.     0.0     0.0     0.0     0.0     0.0     0.0     0.0     0.1     0.1     0.0     0.0     0.0     0.0     0.0     0.0     0.0     0.0     0.0     0.1     0.1     0.1     0.0     0.0     0.0     0.0     0.1     0.1
   15 193   117    0.04    0.06    0.08    0.07    47.3   0.005   0.048   0.061   0.095     0.3     0.3     0.5     0.0     382    0.00    0.38    0.00    0.58     0.0     0.0     0.0     0.0     0.0     0.0     0.0     0.0     0.0     15.     31.     28.     27.     28.     37.     35.     96.     85.     0.0     0.0     0.0     0.0     0.0     0.0     0.0     0.1     0.1     0.0     0.0     0.0     0.0     0.0     0.0     0.0     0.0     0.0     0.1     0.1     0.1     0.0     0.0     0.0     0.0     0.1     0.1
   15 194   118    0.04    0.06    0.08    0.07    47.6   0.005   0.048   0.061   0.095     0.3     0.3     0.5     0.0     362    0.00    0.36    0.00    0.56     0.0     0.0     0.0     0.0     0.0     0.0     0.0     0.0     0.0     17.     29.     26.     25.     26.     34.     33.     91.     81.     0.0     0.0     0.0     0.0     0.0     0.0     0.0     0.1     0.1     0.0     0.0     0.0     0.0     0.0     0.0     0.0     0.0     0.0     0.1     0.1     0.1     0.0     0.0     0.0     0.0     0.1     0.1
   15 195   119    0.04    0.06    0.08    0.07    48.0   0.005   0.048   0.061   0.096     0.3     0.3     0.5     0.0     362    0.00    0.36    0.00    0.57     0.0     0.0     0.0     0.0     0.0     0.0     0.0     0.0     0.0     17.     29.     26.     25.     26.     34.     33.     92.     81.     0.0     0.0     0.0     0.0     0.0     0.0     0.0     0.1     0.1     0.0     0.0     0.0     0.0     0.0     0.0     0.0     0.0     0.0     0.1     0.1     0.1     0.0     0.0     0.0     0.0     0.1     0.1
   15 196   120    0.04    0.06    0.08    0.07    48.4   0.005   0.049   0.061   0.097     0.3     0.3     0.5     0.0     388    0.00    0.39    0.00    0.62     0.0     0.0     0.0     0.0     0.0     0.0     0.0     0.0     0.0     20.     30.     28.     27.     27.     37.     35.     98.     85.     0.0     0.0     0.0     0.0     0.0     0.0     0.0     0.1     0.1     0.0     0.0     0.0     0.0     0.0     0.0     0.0     0.0     0.0     0.1     0.1     0.1     0.0     0.0     0.0     0.0     0.1     0.1
   15 197   121    0.04    0.06    0.08    0.07    48.8   0.005   0.049   0.061   0.097     0.3     0.3     0.5     0.0     419    0.00    0.42    0.00    0.67     0.0     0.0     0.0     0.0     0.0     0.0     0.0     0.0     0.0     21.     33.     30.     29.     30.     41.     39.    105.     91.     0.0     0.0     0.0     0.0     0.0     0.0     0.0     0.1     0.1     0.0     0.0     0.0     0.0     0.0     0.0     0.0     0.0     0.0     0.1     0.1     0.1     0.0     0.0     0.0     0.0     0.1     0.1
   15 198   122    0.04    0.06    0.08    0.07    49.2   0.005   0.050   0.061   0.098     0.3     0.3     0.6     0.0     438    0.00    0.44    0.00    0.70     0.0     0.0     0.0     0.0     0.0     0.0     0.0     0.0     0.0     22.     34.     32.     31.     31.     43.     41.    110.     94.     0.0     0.0     0.0     0.0     0.0     0.0     0.0     0.1     0.1     0.0     0.0     0.0     0.0     0.0     0.0     0.0     0.0     0.0     0.1     0.1     0.1     0.0     0.0     0.0     0.0     0.1     0.1
   15 199   123    0.04    0.06    0.08    0.07    49.7   0.005   0.050   0.061   0.099     0.3     0.3     0.6     0.0     459    0.00    0.46    0.00    0.74     0.0     0.0     0.0     0.0     0.0     0.0     0.0     0.0     0.0     21.     35.     34.     32.     33.     46.     43.    115.     98.     0.0     0.0     0.0     0.0     0.0     0.0     0.0     0.1     0.1     0.0     0.0     0.0     0.0     0.0     0.0     0.0     0.0     0.0     0.1     0.1     0.1     0.0     0.0     0.0     0.0     0.1     0.1
   15 200   124    0.04    0.06    0.08    0.07    50.2   0.005   0.051   0.061   0.100     0.3     0.3     0.6     0.0     478    0.00    0.48    0.00    0.77     0.0     0.0     0.0     0.0     0.0     0.0     0.0     0.0     0.0     21.     35.     36.     34.     35.     49.     46.    120.    102.     0.0     0.0     0.0     0.0     0.0     0.0     0.0     0.1     0.1     0.0     0.0     0.0     0.0     0.0     0.0     0.0     0.0     0.0     0.1     0.1     0.1     0.1     0.1     0.1     0.0     0.1     0.1
   15 201   125    0.04    0.06    0.08    0.07    50.7   0.005   0.051   0.061   0.100     0.4     0.3     0.6     0.0     485    0.00    0.49    0.00    0.77     0.0     0.0     0.0     0.0     0.0     0.0     0.0     0.0     0.0     20.     34.     36.     34.     35.     50.     48.    123.    105.     0.0     0.0     0.0     0.0     0.0     0.1     0.0     0.1     0.1     0.0     0.0     0.0     0.0     0.0     0.0     0.0     0.0     0.0     0.1     0.1     0.1     0.1     0.1     0.1     0.1     0.1     0.1
   15 202   126    0.04    0.06    0.09    0.07    51.2   0.005   0.052   0.061   0.101     0.4     0.2     0.6     0.0     489    0.00    0.49    0.00    0.77     0.0     0.0     0.0     0.0     0.0     0.0     0.0     0.0     0.0     18.     33.     36.     34.     35.     51.     49.    125.    107.     0.0     0.0     0.0     0.0     0.0     0.1     0.0     0.1     0.1     0.0     0.0     0.0     0.0     0.0     0.0     0.0     0.0     0.0     0.1     0.1     0.1     0.1     0.1     0.1     0.1     0.1     0.1
   15 203   127    0.04    0.06    0.09    0.07    51.7   0.005   0.052   0.061   0.102     0.4     0.2     0.6     0.0     495    0.00    0.49    0.00    0.77     0.0     0.0     0.0     0.0     0.0     0.0     0.0     0.0     0.0     17.     32.     36.     34.     36.     52.     51.    128.    109.     0.0     0.0     0.0     0.0     0.0     0.1     0.1     0.1     0.1     0.0     0.0     0.0     0.0     0.0     0.0     0.0     0.0     0.0     0.1     0.1     0.1     0.1     0.1     0.1     0.1     0.1     0.1
   15 204   128    0.04    0.06    0.09    0.07    52.1   0.005   0.052   0.061   0.104     0.4     0.2     0.6     0.0     493    0.00    0.49    0.00    1.90     0.0     0.0     0.0     0.0     0.0     0.0     0.0     0.0     0.0     16.     30.     36.     34.     35.     53.     51.    129.    110.     0.0     0.0     0.0     0.0     0.0     0.1     0.1     0.1     0.1     0.0     0.0     0.0     0.0     0.0     0.0     0.0     0.0     0.0     0.2     0.3     0.2     0.1     0.1     0.1     0.1     0.3     0.3
   15 205   129    0.04    0.06    0.09    0.07    52.6   0.005   0.053   0.061   0.105     0.3     0.2     0.7     0.0     488    0.00    0.49    0.00    1.29     0.0     0.0     0.0     0.0     0.0     0.0     0.0     0.0     0.0     18.     28.     35.     33.     34.     52.     51.    128.    110.     0.0     0.0     0.0     0.0     0.0     0.1     0.1     0.1     0.1     0.0     0.0     0.0     0.0     0.0     0.0     0.0     0.0     0.0     0.2     0.2     0.2     0.1     0.1     0.1     0.1     0.2     0.2
   15 206   130    0.04    0.06    0.09    0.07    53.1   0.005   0.053   0.061   0.106     0.4     0.2     0.7     0.0     480    0.00    0.48    0.00    0.85     0.0     0.0     0.0     0.0     0.0     0.0     0.0     0.0     0.0     17.     26.     34.     31.     33.     51.     51.    127.    109.     0.0     0.0     0.0     0.0     0.0     0.1     0.1     0.1     0.1     0.0     0.0     0.0     0.0     0.0     0.0     0.0     0.0     0.0     0.1     0.1     0.1     0.1     0.1     0.1     0.1     0.1     0.1
   15 207   131    0.04    0.06    0.09    0.07    53.6   0.005   0.054   0.061   0.107     0.4     0.2     0.7     0.0     454    0.00    0.45    0.00    0.68     0.0     0.0     0.0     0.0     0.0     0.0     0.0     0.0     0.0     15.     23.     31.     29.     31.     48.     48.    122.    106.     0.0     0.0     0.0     0.0     0.0     0.0     0.0     0.1     0.1     0.0     0.0     0.0     0.0     0.0     0.0     0.0     0.0     0.0     0.1     0.1     0.1     0.0     0.0     0.1     0.1     0.1     0.1
   15 208   132    0.04    0.06    0.09    0.07    54.0   0.005   0.054   0.061   0.107     0.4     0.2     0.7     0.0     409    0.00    0.41    0.00    0.61     0.0     0.0     0.0     0.0     0.0     0.0     0.0     0.0     0.0     12.     20.     27.     25.     27.     43.     44.    112.     98.     0.0     0.0     0.0     0.0     0.0     0.0     0.0     0.1     0.1     0.0     0.0     0.0     0.0     0.0     0.0     0.0     0.0     0.0     0.1     0.1     0.1     0.0     0.0     0.0     0.0     0.1     0.1
   15 209   133    0.04    0.06    0.09    0.07    54.4   0.005   0.055   0.061   0.108     0.3     0.1     0.6     0.0     383    0.00    0.38    0.00    0.58     0.0     0.0     0.0     0.0     0.0     0.0     0.0     0.0     0.0     18.     17.     24.     23.     24.     39.     40.    104.     92.     0.0     0.0     0.0     0.0     0.0     0.0     0.0     0.1     0.1     0.0     0.0     0.0     0.0     0.0     0.0     0.0     0.0     0.0     0.1     0.1     0.1     0.0     0.0     0.0     0.0     0.1     0.1
   15 210   134    0.05    0.06    0.09    0.07    54.7   0.005   0.055   0.061   0.108     0.3     0.1     0.6     0.0     366    0.00    0.37    0.00    0.55     0.0     0.0     0.0     0.0     0.0     0.0     0.0     0.0     0.0     19.     16.     23.     21.     23.     37.     38.    100.     89.     0.0     0.0     0.0     0.0     0.0     0.0     0.0     0.1     0.1     0.0     0.0     0.0     0.0     0.0     0.0     0.0     0.0     0.0     0.1     0.1     0.1     0.0     0.0     0.0     0.0     0.1     0.1
   15 211   135    0.05    0.06    0.09    0.07    55.1   0.005   0.055   0.061   0.109     0.3     0.1     0.6     0.0     336    0.00    0.34    0.00    0.50     0.0     0.0     0.0     0.0     0.0     0.0     0.0     0.0     0.0     17.     14.     20.     19.     20.     34.     35.     93.     83.     0.0     0.0     0.0     0.0     0.0     0.0     0.0     0.1     0.1     0.0     0.0     0.0     0.0     0.0     0.0     0.0     0.0     0.0     0.1     0.1     0.1     0.0     0.0     0.0     0.0     0.1     0.1
   15 212   136    0.05    0.06    0.09    0.07    55.4   0.005   0.056   0.061   0.109     0.3     0.1     0.6     0.0     317    0.00    0.32    0.00    0.48     0.0     0.0     0.0     0.0     0.0     0.0     0.0     0.0     0.0     17.     13.     19.     18.     19.     31.     32.     88.     80.     0.0     0.0     0.0     0.0     0.0     0.0     0.0     0.1     0.1     0.0     0.0     0.0     0.0     0.0     0.0     0.0     0.0     0.0     0.1     0.1     0.1     0.0     0.0     0.0     0.0     0.1     0.1
   15 213   137    0.05    0.06    0.09    0.07    55.7   0.005   0.056   0.061   0.110     0.3     0.1     0.6     0.0     314    0.00    0.31    0.00    0.47     0.0     0.0     0.0     0.0     0.0     0.0     0.0     0.0     0.0     16.     12.     19.     18.     19.     31.     32.     88.     79.     0.0     0.0     0.0     0.0     0.0     0.0     0.0     0.1     0.1     0.0     0.0     0.0     0.0     0.0     0.0     0.0     0.0     0.0     0.1     0.1     0.1     0.0     0.0     0.0     0.0     0.1     0.1
   15 214   138    0.05    0.06    0.09    0.07    56.0   0.005   0.056   0.061   0.110     0.4     0.1     0.6     0.0     306    0.00    0.31    0.00    0.46     0.0     0.0     0.0     0.0     0.0     0.0     0.0     0.0     0.0     15.     12.     18.     17.     18.     30.     31.     86.     78.     0.0     0.0     0.0     0.0     0.0     0.0     0.0     0.1     0.1     0.0     0.0     0.0     0.0     0.0     0.0     0.0     0.0     0.0     0.1     0.1     0.0     0.0     0.0     0.0     0.0     0.1     0.1
   15 215   139    0.05    0.06    0.09    0.07    56.3   0.005   0.057   0.061   0.111     0.4     0.1     0.6     0.0     308    0.00    0.31    0.00    0.46     0.0     0.0     0.0     0.0     0.0     0.0     0.0     0.0     0.0     14.     12.     18.     17.     18.     31.     32.     87.     79.     0.0     0.0     0.0     0.0     0.0     0.0     0.0     0.1     0.1     0.0     0.0     0.0     0.0     0.0     0.0     0.0     0.0     0.0     0.1     0.1     0.1     0.0     0.0     0.0     0.0     0.1     0.1
   15 216   140    0.05    0.06    0.09    0.07    56.6   0.005   0.057   0.061   0.111     0.4     0.1     0.6     0.0     324    0.00    0.32    0.00    0.49     0.0     0.0     0.0     0.0     0.0     0.0     0.0     0.0     0.0     15.     13.     20.     18.     20.     32.     33.     92.     82.     0.0     0.0     0.0     0.0     0.0     0.0     0.0     0.1     0.1     0.0     0.0     0.0     0.0     0.0     0.0     0.0     0.0     0.0     0.1     0.1     0.1     0.0     0.0     0.0     0.0     0.1     0.1
   15 217   141    0.05    0.06    0.09    0.07    57.0   0.005   0.057   0.061   0.112     0.4     0.1     0.6     0.0     350    0.00    0.35    0.00    0.53     0.0     0.0     0.0     0.0     0.0     0.0     0.0     0.0     0.0     15.     14.     22.     20.     21.     35.     36.     99.     87.     0.0     0.0     0.0     0.0     0.0     0.0     0.0     0.1     0.1     0.0     0.0     0.0     0.0     0.0     0.0     0.0     0.0     0.0     0.1     0.1     0.1     0.0     0.0     0.0     0.0     0.1     0.1
   15 218   142    0.05    0.06    0.10    0.07    57.4   0.005   0.058   0.061   0.112     0.4     0.1     0.6     0.0     370    0.00    0.37    0.00    0.56     0.0     0.0     0.0     0.0     0.0     0.0     0.0     0.0     0.0     15.     14.     23.     22.     23.     38.     39.    105.     92.     0.0     0.0     0.0     0.0     0.0     0.0     0.0     0.1     0.1     0.0     0.0     0.0     0.0     0.0     0.0     0.0     0.0     0.0     0.1     0.1     0.1     0.0     0.0     0.0     0.0     0.1     0.1
   15 219   143    0.05    0.06    0.10    0.07    57.7   0.005   0.058   0.061   0.113     0.4     0.1     0.6     0.0     398    0.00    0.40    0.00    0.60     0.0     0.0     0.0     0.0     0.0     0.0     0.0     0.0     0.0     15.     15.     25.     23.     25.     41.     42.    113.     98.     0.0     0.0     0.0     0.0     0.0     0.0     0.0     0.1     0.1     0.0     0.0     0.0     0.0     0.0     0.0     0.0     0.0     0.0     0.1     0.1     0.1     0.0     0.0     0.0     0.0     0.1     0.1
   15 220   144    0.05    0.06    0.10    0.07    58.2   0.005   0.059   0.061   0.113     0.4     0.1     0.6     0.0     425    0.00    0.43    0.00    0.63     0.0     0.0     0.0     0.0     0.0     0.0     0.0     0.0     0.0     15.     16.     27.     25.     26.     45.     45.    121.    104.     0.0     0.0     0.0     0.0     0.0     0.0     0.0     0.1     0.1     0.0     0.0     0.0     0.0     0.0     0.0     0.0     0.0     0.0     0.1     0.1     0.1     0.0     0.0     0.0     0.0     0.1     0.1
   15 221   145    0.05    0.06    0.10    0.07    58.6   0.005   0.059   0.061   0.114     0.4     0.1     0.6     0.0     452    0.00    0.45    0.00    0.68     0.0     0.0     0.0     0.0     0.0     0.0     0.0     0.0     0.0     19.     17.     28.     26.     28.     48.     48.    128.    110.     0.0     0.0     0.0     0.0     0.0     0.0     0.0     0.1     0.1     0.0     0.0     0.0     0.0     0.0     0.0     0.0     0.0     0.0     0.1     0.1     0.1     0.0     0.0     0.1     0.1     0.1     0.1
   15 222   146    0.05    0.06    0.10    0.07    59.1   0.005   0.059   0.061   0.115     0.4     0.1     0.6     0.0     465    0.00    0.47    0.00    0.70     0.0     0.0     0.0     0.0     0.0     0.0     0.0     0.0     0.0     19.     17.     29.     27.     28.     49.     50.    133.    114.     0.0     0.0     0.0     0.0     0.0     0.0     0.1     0.1     0.1     0.0     0.0     0.0     0.0     0.0     0.0     0.0     0.0     0.0     0.1     0.1     0.1     0.0     0.0     0.1     0.1     0.1     0.1
   15 223   147    0.05    0.06    0.10    0.07    59.6   0.005   0.060   0.061   0.116     0.4     0.1     0.6     0.0     476    0.00    0.48    0.00    0.71     0.0     0.0     0.0     0.0     0.0     0.0     0.0     0.0     0.0     18.     17.     29.     27.     29.     51.     52.    136.    117.     0.0     0.0     0.0     0.0     0.0     0.1     0.1     0.1     0.1     0.0     0.0     0.0     0.0     0.0     0.0     0.0     0.0     0.0     0.1     0.1     0.1     0.0     0.0     0.1     0.1     0.1     0.1
   15 224   148    0.05    0.06    0.10    0.07    60.0   0.005   0.060   0.061   0.116     0.4     0.1     0.6     0.0     480    0.00    0.48    0.00    0.70     0.0     0.0     0.0     0.0     0.0     0.0     0.0     0.0     0.0     16.     16.     29.     27.     29.     52.     54.    137.    118.     0.0     0.0     0.0     0.0     0.0     0.1     0.1     0.1     0.1     0.0     0.0     0.0     0.0     0.0     0.0     0.0     0.0     0.0     0.1     0.1     0.1     0.0     0.0     0.1     0.1     0.1     0.1
