*PLANT N OUTPUT FILE

*DSSAT Cropping System Model Ver. 4.8.5.000 -release  OCT 27, 2025 22:35:44

*RUN   1        : 1                         WHAPS048 TUDU1501    1
 MODEL          : WHAPS048 - Wheat
 EXPERIMENT     : TUDU1501 WH
 DATA PATH      :
 TREATMENT  1   : 1                         WHAPS048
  
@YEAR DOY   DAS   DAP   CNAD   GNAD   GN%D   VN%D   NUPC   LNAD   SNAD   LN%D   SN%D   RN%D   SNN0C   SNN1C NFact1 NFact2 NFact3 NFact4  RootN lfshthN
   15 077     1     0    0.0    0.0   0.00   0.00    0.0    0.0    0.0    0.0   0.00   0.00    0.00    0.00   0.00   0.00   0.00   0.00   0.00   0.00
   15 078     2     1    0.0    0.0   0.00   0.00    0.0    0.0    0.0    0.0   0.00   0.00    0.00    0.00   0.00   0.00   0.00   0.00   0.00   0.00
   15 079     3     2    0.0    0.0   0.00   0.00    0.0    0.0    0.0    0.0   0.00   0.00    0.00    0.00   0.00   0.00   0.00   0.00   0.00   0.00
   15 080     4     3    0.0    0.0   0.00   0.00    0.0    0.0    0.0    0.0   0.00   0.00    0.00    0.00   0.00   0.00   0.00   0.00   0.00   0.00
   15 081     5     4    0.0    0.0   0.00   0.00    0.0    0.0    0.0    0.0   0.00   0.00    0.00    0.00   0.00   0.00   0.00   0.00   0.00   0.00
   15 082     6     5    0.0    0.0   0.00   0.00    0.0    0.0    0.0    0.0   0.00   0.00    0.00    0.00   0.00   0.00   0.00   0.00   0.00   0.00
   15 083     7     6    0.0    0.0   0.00   0.00    0.0    0.0    0.0    0.0   0.00   0.00    0.00    0.00   0.00   0.00   0.00   0.00   0.00   0.00
   15 084     8     7    0.0    0.0   0.00   0.00    0.0    0.0    0.0    0.0   0.00   0.00    0.00    0.00   0.00   0.00   0.00   0.00   0.00   0.00
   15 085     9     8    0.0    0.0   0.00   0.00    0.0    0.0    0.0    0.0   0.00   0.00    0.00    0.00   0.00   0.00   0.00   0.00   0.00   0.00
   15 086    10     9    0.0    0.0   0.00   0.00    0.0    0.0    0.0    0.0   0.00   0.00    0.00    0.00   0.00   0.00   0.00   0.00   0.00   0.00
   15 087    11    10    0.0    0.0   0.00   0.00    0.0    0.0    0.0    0.0   0.00   0.00    0.00    0.00   0.00   0.00   0.00   0.00   0.00   0.00
   15 088    12    11    0.0    0.0   0.00   0.00    0.0    0.0    0.0    0.0   0.00   0.00    0.00    0.00   0.00   0.00   0.00   0.00   0.00   0.00
   15 089    13    12    1.0    0.0   0.00   9.01    0.2    0.5    0.0    5.6   6.34   4.42    0.00    0.00   0.00   0.00   0.00   0.00   1.00   0.39
   15 090    14    13    1.0    0.0   0.00   7.54    0.2    0.6    0.0    5.1   6.34   4.32    0.00    0.00   0.00   0.00   0.00   0.00   0.99   0.39
   15 091    15    14    1.2    0.0   0.00   8.02    0.4    0.8    0.0    6.0   6.34   4.22    0.00    0.00   0.00   0.00   0.00   0.00   0.98   0.39
   15 092    16    15    1.2    0.0   0.00   7.71    0.4    0.8    0.0    6.0   6.34   4.16    0.00    0.00   0.00   0.00   0.00   0.00   0.97   0.39
   15 093    17    16    1.3    0.0   0.00   6.79    0.5    0.8    0.0    5.6   6.34   4.00    0.00    0.00   0.00   0.00   0.00   0.00   0.96   0.39
   15 094    18    17    1.4    0.0   0.00   6.87    0.6    0.9    0.0    5.9   6.34   3.94    0.00    0.00   0.00   0.00   0.00   0.00   0.95   0.39
   15 095    19    18    1.4    0.0   0.00   6.71    0.6    1.0    0.0    6.0   6.34   3.79    0.00    0.00   0.00   0.00   0.00   0.00   0.94   0.39
   15 096    20    19    1.4    0.0   0.00   6.50    0.6    1.0    0.0    6.0   6.34   3.68    0.00    0.00   0.00   0.00   0.00   0.00   0.93   0.39
   15 097    21    20    1.5    0.0   0.00   5.97    0.7    1.1    0.0    5.7   6.34   3.51    0.00    0.00   0.00   0.00   0.00   0.00   0.92   0.39
   15 098    22    21    1.6    0.0   0.00   4.98    0.8    1.1    0.0    4.9   6.34   3.31    0.00    0.00   0.00   0.00   0.00   0.00   0.92   0.39
   15 099    23    22    1.9    0.0   0.00   4.28    1.1    1.4    0.0    4.2   6.34   3.05    0.00    0.00   0.00   0.00   0.00   0.00   0.91   0.47
   15 100    24    23    2.7    0.0   0.00   5.02    1.9    2.1    0.0    5.1   6.34   2.84    0.00    0.00   0.25   0.50   0.75   0.75   0.90   0.63
   15 101    25    24    3.2    0.0   0.00   4.77    2.5    2.4    0.0    4.7   6.34   2.64    0.00    0.00   0.00   0.28   0.48   0.48   0.89   0.78
   15 102    26    25    4.1    0.0   0.00   4.89    3.3    3.1    0.0    4.9   6.34   2.41    0.00    0.00   0.01   0.34   0.56   0.56   0.88   0.94
   15 103    27    26    4.9    0.0   0.00   4.89    4.1    3.7    0.0    4.9   6.34   2.20    0.00    0.00   0.00   0.29   0.50   0.50   0.87   1.14
   15 104    28    27    5.7    0.0   0.00   5.02    4.9    4.3    0.0    5.2   6.34   1.95    0.00    0.00   0.00   0.28   0.48   0.48   0.86   1.33
   15 105    29    28    6.2    0.0   0.00   4.84    5.4    4.6    0.0    5.1   6.34   1.77    0.00    0.00   0.00   0.23   0.40   0.40   0.89   1.58
   15 106    30    29    6.7    0.0   0.00   4.72    5.9    4.8    0.0    5.0   6.34   1.67    0.00    0.00   0.00   0.26   0.46   0.46   0.93   1.82
   15 107    31    30    8.7    0.0   0.00   5.70    8.1    5.8    0.0    5.7   6.34   1.94    0.00    0.00   0.00   0.29   0.49   0.49   1.15   2.80
   15 108    32    31    9.5    0.0   0.00   5.81    9.2    6.3    0.0    5.8   6.34   2.03    0.00    0.00   0.00   0.00   0.00   0.00   1.38   3.24
   15 109    33    32   10.4    0.0   0.00   5.76   10.3    6.7    0.0    5.7   6.34   2.01    0.00    0.00   0.00   0.00   0.00   0.00   1.62   3.69
   15 110    34    33   11.8    0.0   0.00   5.67   11.9    7.4    0.0    5.6   6.34   1.95    0.00    0.00   0.00   0.00   0.00   0.00   1.78   4.38
   15 111    35    34   13.5    0.0   0.00   5.57   13.9    8.2    0.0    5.6   6.34   1.93    0.00    0.00   0.00   0.00   0.00   0.00   2.04   5.27
   15 112    36    35   15.6    0.0   0.00   5.52   16.3    9.3    0.0    5.5   6.34   1.93    0.00    0.00   0.00   0.00   0.00   0.00   2.35   6.33
   15 113    37    36   16.8    0.0   0.00   5.54   17.9    9.8    0.0    5.5   6.34   1.99    0.00    0.00   0.00   0.00   0.00   0.00   2.78   6.91
   15 114    38    37   18.7    0.0   0.00   5.44   20.3   10.8    0.0    5.4   6.34   1.94    0.00    0.00   0.00   0.00   0.00   0.00   3.27   7.87
   15 115    39    38   20.4    0.0   0.00   5.37   22.4   11.6    0.0    5.4   6.34   1.92    0.00    0.00   0.00   0.00   0.00   0.00   3.52   8.76
   15 116    40    39   22.8    0.0   0.00   5.23   25.2   12.8    0.0    5.2   6.34   1.89    0.00    0.00   0.00   0.00   0.00   0.00   3.90   9.99
   15 117    41    40   26.3    0.0   0.00   5.22   29.3   14.5    0.0    5.2   6.34   1.91    0.00    0.00   0.00   0.00   0.00   0.00   4.45  11.75
   15 118    42    41   28.2    0.0   0.00   5.23   31.6   15.5    0.0    5.2   6.34   1.93    0.00    0.00   0.00   0.00   0.00   0.00   4.74  12.73
   15 119    43    42   29.4    0.0   0.00   5.18   33.3   16.1    0.0    5.2   6.34   1.95    0.00    0.00   0.00   0.00   0.00   0.00   5.26  13.31
   15 120    44    43   32.1    0.0   0.00   5.13   36.6   17.4    0.0    5.1   6.34   1.93    0.00    0.00   0.00   0.00   0.00   0.00   5.87  14.67
   15 121    45    44   34.2    0.0   0.00   5.14   39.1   18.4    0.0    5.1   6.34   1.93    0.00    0.00   0.00   0.00   0.00   0.00   6.15  15.72
   15 122    46    45   36.7    0.0   0.00   5.07   42.1   19.7    0.0    5.1   6.34   1.92    0.00    0.00   0.00   0.00   0.00   0.00   6.55  17.02
   15 123    47    46   38.4    0.0   0.00   4.89   44.1   20.5    0.0    4.9   6.34   1.87    0.00    0.00   0.00   0.00   0.00   0.00   6.80  17.85
   15 124    48    47   41.0    0.0   0.00   4.67   47.2   21.8    0.0    4.7   6.34   1.81    0.00    0.00   0.00   0.00   0.00   0.00   7.22  19.16
   15 125    49    48   43.4    0.0   0.00   4.53   50.0   23.0    0.0    4.5   6.34   1.77    0.00    0.00   0.00   0.05   0.09   0.09   7.61  20.37
   15 126    50    49   44.4    0.0   0.00   4.32   51.4   23.5    0.0    4.3   6.34   1.61    0.00    0.00   0.00   0.09   0.17   0.17   7.84  20.89
   15 127    51    50   46.0    0.0   0.00   4.16   53.6   24.3    0.0    4.2   6.34   1.49    0.00    0.00   0.00   0.15   0.28   0.28   8.36  21.72
   15 128    52    51   48.1    0.0   0.00   4.02   56.5   25.3    0.0    4.0   6.34   1.41    0.00    0.00   0.00   0.20   0.35   0.35   9.11  22.76
   15 129    53    52   50.3    0.0   0.00   3.94   59.6   26.4    0.0    4.0   6.34   1.40    0.00    0.00   0.00   0.23   0.41   0.41   9.92  23.85
   15 130    54    53   52.3    0.0   0.00   3.87   62.5   27.4    0.0    3.9   6.34   1.38    0.00    0.00   0.00   0.25   0.43   0.43  10.72  24.88
   15 131    55    54   54.1    0.0   0.00   3.78   65.1   28.3    0.0    3.8   6.34   1.35    0.00    0.00   0.00   0.26   0.45   0.45  11.41  25.77
   15 132    56    55   55.5    0.0   0.00   3.62   67.2   29.0    0.0    3.7   6.34   1.27    0.00    0.00   0.00   0.27   0.47   0.47  11.99  26.50
   15 133    57    56   56.8    0.0   0.00   3.48   69.1   29.6    0.0    3.5   6.34   1.21    0.00    0.00   0.00   0.32   0.54   0.54  12.48  27.13
   15 134    58    57   57.9    0.0   0.00   3.38   70.8   30.2    0.0    3.4   6.34   1.17    0.00    0.00   0.05   0.37   0.60   0.60  12.91  27.70
   15 135    59    58   58.9    0.0   0.00   3.32   72.3   30.7    0.0    3.4   6.34   1.15    0.00    0.00   0.09   0.40   0.63   0.63  13.29  28.20
   15 136    60    59   59.8    0.0   0.00   3.26   73.6   31.1    0.0    3.3   6.34   1.13    0.00    0.00   0.11   0.41   0.65   0.65  13.62  28.65
   15 137    61    60   60.6    0.0   0.00   3.08   74.9   31.5    0.1    3.1   0.29   1.12    0.00    0.00   0.13   0.42   0.66   0.66  13.85  29.06
   15 138    62    61   61.4    0.0   0.00   2.88   76.0   31.9    0.1    3.0   0.26   1.10    0.00    0.00   0.22   0.48   0.73   0.73  14.01  29.43
   15 139    63    62   62.2    0.0   0.00   2.82   77.0   32.2    0.2    2.9   0.32   1.10    0.00    0.00   0.33   0.56   0.80   0.80  14.16  29.79
   15 140    64    63   62.9    0.0   0.00   2.79   78.1   32.5    0.3    2.9   0.38   1.10    0.00    0.00   0.36   0.58   0.82   0.82  14.29  30.12
   15 141    65    64   63.7    0.0   0.00   2.73   79.0   32.8    0.4    2.9   0.41   1.10    0.00    0.00   0.37   0.58   0.82   0.82  14.40  30.44
   15 142    66    65   64.4    0.0   0.00   2.64   80.0   33.1    0.5    2.8   0.42   1.09    0.00    0.00   0.39   0.59   0.83   0.83  14.49  30.75
   15 143    67    66   65.0    0.0   0.00   2.57   80.8   33.4    0.6    2.7   0.43   1.08    0.00    0.00   0.44   0.63   0.86   0.86  14.55  31.01
   15 144    68    67   65.5    0.0   0.00   2.53   81.6   33.6    0.7    2.7   0.44   1.07    0.00    0.00   0.46   0.64   0.87   0.87  14.59  31.24
   15 145    69    68   66.0    0.0   0.00   2.47   82.2   33.8    0.8    2.7   0.43   1.06    0.00    0.00   0.47   0.65   0.88   0.88  14.60  31.44
   15 146    70    69   66.5    0.0   0.00   2.42   82.8   34.0    0.9    2.6   0.44   1.05    0.00    0.00   0.50   0.67   0.89   0.89  14.61  31.63
   15 147    71    70   66.9    0.0   0.00   2.38   83.4   34.2    1.0    2.6   0.43   1.04    0.00    0.00   0.52   0.68   0.90   0.90  14.60  31.80
   15 148    72    71   67.3    0.0   0.00   2.30   83.9   34.3    1.1    2.5   0.41   1.02    0.00    0.00   0.54   0.69   0.90   0.90  14.59  31.95
   15 149    73    72   67.7    0.0   0.00   2.25   84.4   34.4    1.2    2.5   0.41   1.01    0.00    0.00   0.57   0.71   0.92   0.92  14.57  32.10
   15 150    74    73   68.1    0.0   0.00   2.21   84.9   34.6    1.3    2.5   0.40   1.00    0.00    0.00   0.59   0.72   0.92   0.92  14.54  32.23
   15 151    75    74   68.4    0.0   0.00   2.16   85.4   34.7    1.4    2.4   0.40   0.99    0.00    0.00   0.59   0.73   0.93   0.93  14.52  32.36
   15 152    76    75   72.8    0.0   0.00   2.25   91.4   36.2    2.8    2.5   0.74   1.07    0.00    0.00   0.60   0.73   0.93   0.93  15.94  33.90
   15 153    77    76   77.2    0.0   0.00   2.31   97.4   37.6    4.3    2.5   1.01   1.15    0.00    0.00   0.45   0.63   0.87   0.87  17.38  35.36
   15 154    78    77   81.6    0.0   0.00   2.33  103.4   38.8    6.0    2.5   1.21   1.22    0.00    0.00   0.33   0.55   0.80   0.80  18.85  36.73
   15 155    79    78   84.6    0.0   0.00   2.30  107.7   39.7    7.3    2.5   1.26   1.25    0.00    0.00   0.22   0.48   0.73   0.73  19.85  37.63
   15 156    80    79   86.1    0.0   0.00   2.23  109.7   40.0    8.0    2.5   1.19   1.24    0.00    0.00   0.18   0.46   0.70   0.70  20.22  38.02
   15 157    81    80   90.3    0.0   0.00   2.25  115.7   40.9   10.4    2.5   1.36   1.31    0.00    0.00   0.19   0.46   0.71   0.71  21.77  39.02
   15 158    82    81   92.6    0.0   0.00   2.20  118.9   41.4   11.7    2.4   1.34   1.32    0.00    0.00   0.08   0.39   0.62   0.62  22.54  39.49
   15 159    83    82   96.4    0.0   0.00   2.24  124.6   41.8   14.6    2.5   1.48   1.40    0.00    0.00   0.08   0.39   0.62   0.62  24.09  40.05
   15 160    84    83   99.3    0.0   0.00   2.26  128.9   41.9   17.1    2.5   1.60   1.47    0.00    0.00   0.00   0.29   0.50   0.50  25.30  40.25
   15 161    85    84   99.9    0.0   0.00   2.21  129.9   41.9   17.8    2.5   1.50   1.47    0.00    0.00   0.00   0.19   0.34   0.34  25.39  40.25
   15 162    86    85  100.5    0.0   0.00   2.14  130.8   41.9   18.3    2.5   1.35   1.46    0.00    0.00   0.00   0.13   0.24   0.24  25.40  40.25
   15 163    87    86  101.1    0.0   0.00   2.06  131.6   41.9   18.9    2.5   1.19   1.43    0.00    0.00   0.00   0.08   0.16   0.16  25.36  40.25
   15 164    88    87  101.7    0.0   0.00   1.99  132.4   41.9   19.5    2.5   1.10   1.42    0.00    0.00   0.00   0.10   0.18   0.18  25.32  40.25
   15 165    89    88  102.3    0.0   0.00   1.92  133.2   41.9   20.1    2.5   1.01   1.40    0.00    0.00   0.00   0.09   0.16   0.16  25.27  40.25
   15 166    90    89  102.9    0.0   0.00   1.89  134.0   41.9   20.8    2.5   0.98   1.39    0.00    0.00   0.00   0.11   0.20   0.20  25.22  40.25
   15 167    91    90  103.7    0.0   0.00   1.84  135.0   41.9   21.5    2.5   0.94   1.38    0.00    0.00   0.00   0.07   0.14   0.14  25.21  40.25
   15 168    92    91  104.5    0.0   0.00   1.79  136.0   41.9   22.3    2.5   0.89   1.36    0.00    0.00   0.00   0.07   0.13   0.13  25.19  40.25
   15 169    93    92  105.1    0.0   0.00   1.77  136.9   41.9   22.9    2.5   0.88   1.36    0.00    0.00   0.00   0.08   0.15   0.15  25.14  40.25
   15 170    94    93  105.8    0.0   0.00   1.73  137.8   41.9   23.6    2.5   0.85   1.35    0.00    0.00   0.00   0.04   0.08   0.08  25.09  40.25
   15 171    95    94  106.4    0.0   0.00   1.70  138.5   41.9   24.2    2.5   0.83   1.34    0.00    0.00   0.00   0.03   0.06   0.06  25.02  40.25
   15 172    96    95  106.9    0.0   0.00   1.67  139.3   41.9   24.8    2.5   0.80   1.33    0.00    0.00   0.00   0.01   0.01   0.01  24.93  40.25
   15 173    97    96  107.4    0.0   0.00   1.63  139.9   41.9   25.2    2.5   0.78   1.31    0.00    0.00   0.00   0.00   0.00   0.00  24.82  40.25
   15 174    98    97  107.9    0.0   0.00   1.60  140.5   41.9   25.7    2.5   0.75   1.31    0.00    0.00   0.00   0.00   0.00   0.00  24.71  40.25
   15 175    99    98  108.3    0.0   0.00   1.55  141.0   41.9   26.1    2.5   0.72   1.30    0.00    0.00   0.00   0.00   0.00   0.00  24.59  40.25
   15 176   100    99  108.7    0.0   0.00   1.51  141.6   41.9   26.6    2.5   0.69   1.29    0.00    0.00   0.00   0.00   0.00   0.00  24.46  40.25
   15 177   101   100  109.1    0.0   0.00   1.48  142.1   41.9   26.9    2.5   0.66   1.28    0.00    0.00   0.00   0.00   0.00   0.00  24.33  40.25
   15 178   102   101  109.4    0.0   0.00   1.45  142.5   41.9   27.3    2.5   0.65   1.27    0.00    0.00   0.00   0.00   0.00   0.00  24.19  40.25
   15 179   103   102  109.7    0.0   0.00   1.41  142.9   41.9   27.6    2.5   0.62   1.26    0.00    0.00   0.00   0.00   0.00   0.00  24.05  40.25
   15 180   104   103  110.0    0.0   0.00   1.38  143.3   41.9   27.9    2.5   0.60   1.25    0.00    0.00   0.00   0.00   0.00   0.00  23.91  40.25
   15 181   105   104  110.3    0.0   0.00   1.35  143.7   41.9   28.1    2.5   0.58   1.24    0.00    0.00   0.00   0.00   0.00   0.00  23.78  40.25
   15 182   106   105  110.5    0.0   0.00   1.32  144.0   41.9   28.3    2.5   0.56   1.23    0.00    0.00   0.00   0.00   0.00   0.00  23.64  40.25
   15 183   107   106  110.7    0.0   0.00   1.29  144.3   41.9   28.5    2.5   0.54   1.22    0.00    0.00   0.00   0.00   0.00   0.00  23.51  40.25
   15 184   108   107  110.9    0.0   0.00   1.26  144.6   41.9   28.7    2.5   0.53   1.21    0.00    0.00   0.00   0.00   0.00   0.00  23.38  40.25
   15 185   109   108  111.0   18.7   2.69   1.12  144.8   38.6   28.8    2.3   0.59   1.21    0.00    0.00   0.00   0.00   0.00   0.00  23.27  24.89
   15 186   110   109  111.1   23.9   2.56   1.07  145.0   35.2   28.9    2.1   0.60   1.21    0.00    0.00   0.00   0.00   0.00   0.00  23.17  23.12
   15 187   111   110  111.2   28.1   2.34   1.03  145.2   32.4   29.0    1.9   0.62   1.21    0.00    0.00   0.00   0.00   0.00   0.00  23.07  21.70
   15 188   112   111  111.9   33.3   2.32   0.99  147.9   29.0   29.7    1.7   0.65   1.30    0.00    0.00   0.00   0.00   0.00   0.00  24.74  19.94
   15 189   113   112  113.0   36.5   2.17   0.98  153.9   26.9   30.8    1.6   0.68   1.55    0.00    0.00   0.00   0.00   0.00   0.00  29.32  18.84
   15 190   114   113  113.0   39.4   2.08   0.95  157.1   25.2   30.6    1.5   0.69   1.71    0.00    0.00   0.00   0.00   0.00   0.00  32.20  17.95
   15 191   115   114  113.0   42.5   2.03   0.91  157.2   23.4   30.2    1.4   0.68   1.71    0.00    0.00   0.00   0.00   0.00   0.00  32.06  16.99
   15 192   116   115  113.0   46.3   2.02   0.86  157.4   21.2   29.7    1.3   0.67   1.71    0.00    0.00   0.00   0.00   0.00   0.00  31.91  15.84
   15 193   117   116  113.0   50.2   1.98   0.82  157.6   19.1   29.1    1.1   0.67   1.71    0.00    0.00   0.00   0.00   0.00   0.00  31.72  14.69
   15 194   118   117  113.0   53.5   1.92   0.79  157.6   17.4   28.4    1.0   0.68   1.71    0.00    0.00   0.00   0.00   0.00   0.00  31.45  13.75
   15 195   119   118  113.0   57.2   1.88   0.75  157.7   15.7   27.4    0.9   0.67   1.71    0.00    0.00   0.00   0.00   0.00   0.00  31.20  12.76
   15 196   120   119  113.0   61.2   1.85   0.71  157.7   14.0   26.2    0.8   0.66   1.71    0.00    0.00   0.00   0.00   0.00   0.00  30.94  11.77
   15 197   121   120  113.4   65.7   1.86   0.66  157.8   12.3   24.6    0.7   0.63   1.69    0.00    0.00   0.00   0.00   0.00   0.00  30.36  10.78
   15 198   122   121  115.3   70.8   1.90   0.62  157.8   11.2   23.3    0.7   0.61   1.59    0.00    0.00   0.00   0.00   0.00   0.00  28.27  10.06
   15 199   123   122  115.8   73.9   1.94   0.59  157.9   10.3   22.0    0.6   0.58   1.57    0.00    0.00   0.00   0.00   0.00   0.00  27.59   9.52
   15 200   124   123  116.5   76.6   1.98   0.56  157.9    9.7   21.0    0.6   0.55   1.53    0.00    0.00   0.00   0.00   0.00   0.00  26.67   9.09
   15 201   125   124  117.5   79.3   2.01   0.54  157.9    9.2   20.2    0.5   0.53   1.48    0.00    0.00   0.00   0.00   0.00   0.00  25.46   8.73
   15 202   126   125  118.6   81.9   2.04   0.52  158.0    8.8   19.5    0.5   0.51   1.41    0.00    0.00   0.00   0.00   0.00   0.00  24.15   8.42
   15 203   127   126  119.2   83.8   2.07   0.50  158.0    8.5   18.8    0.5   0.50   1.38    0.00    0.00   0.00   0.00   0.00   0.00  23.32   8.13
   15 204   128   127  119.4   85.2   2.08   0.48  158.0    8.2   18.2    0.5   0.48   1.37    0.00    0.00   0.00   0.00   0.00   0.00  22.90   7.87
   15 205   129   128  120.0   86.8   2.10   0.47  158.0    7.9   17.6    0.5   0.47   1.34    0.00    0.00   0.00   0.00   0.00   0.00  22.15   7.63
   15 206   130   129  120.4   88.2   2.11   0.45  158.0    7.7   17.1    0.5   0.45   1.32    0.00    0.00   0.00   0.00   0.00   0.00  21.59   7.41
   15 207   131   130  120.6   89.3   2.12   0.44  158.0    7.5   16.7    0.4   0.44   1.30    0.00    0.00   0.00   0.00   0.00   0.00  21.15   7.21
   15 208   132   131  120.8   90.3   2.13   0.43  158.2    7.3   16.2    0.4   0.43   1.31    0.00    0.00   0.00   0.00   0.00   0.00  21.02   7.01
   15 209   133   132  121.0   91.3   2.13   0.42  158.6    7.1   15.8    0.4   0.42   1.32    0.00    0.00   0.00   0.00   0.00   0.00  21.02   6.83
   15 210   134   133  121.3   92.4   2.14   0.41  159.2    6.9   15.4    0.4   0.41   1.34    0.00    0.00   0.00   0.00   0.00   0.00  21.10   6.66
   15 211   135   134  121.7   93.5   2.15   0.40  159.4    6.7   15.0    0.4   0.40   1.33    0.00    0.00   0.00   0.00   0.00   0.00  20.70   6.50
   15 212   136   135  122.0   94.4   2.16   0.39  159.4    6.6   14.7    0.4   0.39   1.31    0.00    0.00   0.00   0.00   0.00   0.00  20.27   6.34
   15 213   137   136  122.0   94.8   2.17   0.38  159.4    6.5   14.4    0.4   0.38   1.31    0.00    0.00   0.00   0.00   0.00   0.00  20.09   6.24
   15 214   138   137  122.0   95.3   2.17   0.37  159.4    6.3   14.2    0.4   0.37   1.32    0.00    0.00   0.00   0.00   0.00   0.00  19.91   6.13
   15 215   139   138  122.0   95.7   2.18   0.37  159.4    6.2   14.0    0.4   0.37   1.32    0.00    0.00   0.00   0.00   0.00   0.00  19.74   6.04
   15 216   140   139  122.0   95.9   2.18   0.37  159.4    6.2   13.9    0.4   0.37   1.32    0.00    0.00   0.00   0.00   0.00   0.00  19.57   6.00
   15 217   141   140  122.0   95.9   2.18   0.37  159.4    6.2   13.9    0.4   0.37   1.32    0.00    0.00   0.00   0.00   0.00   0.00  19.40   6.00
   15 218   142   141  122.0   95.9   2.18   0.37  159.4    6.2   13.9    0.4   0.37   1.32    0.00    0.00   0.00   0.00   0.00   0.00  19.23   6.00
   15 219   143   142  122.0   95.9   2.18   0.37  159.4    6.2   13.9    0.4   0.37   1.32    0.00    0.00   0.00   0.00   0.00   0.00  19.06   6.00
   15 220   144   143  122.0   95.9   2.18   0.37  159.4    6.2   13.9    0.4   0.37   1.33    0.00    0.00   0.00   0.00   0.00   0.00  18.89   6.00
   15 221   145   144  122.0   95.9   2.18   0.37  159.4    6.2   13.9    0.4   0.37   1.33    0.00    0.00   0.00   0.00   0.00   0.00  18.73   6.00
   15 222   146   145  122.0   95.9   2.18   0.37  159.4    6.2   13.9    0.4   0.37   1.33    0.00    0.00   0.00   0.00   0.00   0.00  18.57   6.00
   15 223   147   146  122.0   95.9   2.18   0.37  159.4    6.2   13.9    0.4   0.37   1.33    0.00    0.00   0.00   0.00   0.00   0.00  18.38   6.00
   15 224   148   147  122.0   95.9   2.18   0.37  159.4    6.2   13.9    0.4   0.37   1.33    0.00    0.00   0.00   0.00   0.00   0.00  18.38   6.00

*DSSAT Cropping System Model Ver. 4.8.5.000 -release  OCT 27, 2025 22:35:44

*RUN   2        : 2                         WHAPS048 TUDU1501    2
 MODEL          : WHAPS048 - Wheat
 EXPERIMENT     : TUDU1501 WH
 DATA PATH      :
 TREATMENT  2   : 2                         WHAPS048
  
@YEAR DOY   DAS   DAP   CNAD   GNAD   GN%D   VN%D   NUPC   LNAD   SNAD   LN%D   SN%D   RN%D   SNN0C   SNN1C NFact1 NFact2 NFact3 NFact4  RootN lfshthN
   15 077     1     0    0.0    0.0   0.00   0.00    0.0    0.0    0.0    0.0   0.00   0.00    0.00    0.00   0.00   0.00   0.00   0.00   0.00   0.00
   15 078     2     1    0.0    0.0   0.00   0.00    0.0    0.0    0.0    0.0   0.00   0.00    0.00    0.00   0.00   0.00   0.00   0.00   0.00   0.00
   15 079     3     2    0.0    0.0   0.00   0.00    0.0    0.0    0.0    0.0   0.00   0.00    0.00    0.00   0.00   0.00   0.00   0.00   0.00   0.00
   15 080     4     3    0.0    0.0   0.00   0.00    0.0    0.0    0.0    0.0   0.00   0.00    0.00    0.00   0.00   0.00   0.00   0.00   0.00   0.00
   15 081     5     4    0.0    0.0   0.00   0.00    0.0    0.0    0.0    0.0   0.00   0.00    0.00    0.00   0.00   0.00   0.00   0.00   0.00   0.00
   15 082     6     5    0.0    0.0   0.00   0.00    0.0    0.0    0.0    0.0   0.00   0.00    0.00    0.00   0.00   0.00   0.00   0.00   0.00   0.00
   15 083     7     6    0.0    0.0   0.00   0.00    0.0    0.0    0.0    0.0   0.00   0.00    0.00    0.00   0.00   0.00   0.00   0.00   0.00   0.00
   15 084     8     7    0.0    0.0   0.00   0.00    0.0    0.0    0.0    0.0   0.00   0.00    0.00    0.00   0.00   0.00   0.00   0.00   0.00   0.00
   15 085     9     8    0.0    0.0   0.00   0.00    0.0    0.0    0.0    0.0   0.00   0.00    0.00    0.00   0.00   0.00   0.00   0.00   0.00   0.00
   15 086    10     9    0.0    0.0   0.00   0.00    0.0    0.0    0.0    0.0   0.00   0.00    0.00    0.00   0.00   0.00   0.00   0.00   0.00   0.00
   15 087    11    10    0.0    0.0   0.00   0.00    0.0    0.0    0.0    0.0   0.00   0.00    0.00    0.00   0.00   0.00   0.00   0.00   0.00   0.00
   15 088    12    11    0.0    0.0   0.00   0.00    0.0    0.0    0.0    0.0   0.00   0.00    0.00    0.00   0.00   0.00   0.00   0.00   0.00   0.00
   15 089    13    12    1.0    0.0   0.00   9.01    0.2    0.5    0.0    5.6   6.34   4.42    0.00    0.00   0.00   0.00   0.00   0.00   1.00   0.39
   15 090    14    13    1.0    0.0   0.00   7.54    0.2    0.6    0.0    5.1   6.34   4.32    0.00    0.00   0.00   0.00   0.00   0.00   0.99   0.39
   15 091    15    14    1.2    0.0   0.00   8.02    0.4    0.8    0.0    6.0   6.34   4.22    0.00    0.00   0.00   0.00   0.00   0.00   0.98   0.39
   15 092    16    15    1.2    0.0   0.00   7.71    0.4    0.8    0.0    6.0   6.34   4.16    0.00    0.00   0.00   0.00   0.00   0.00   0.97   0.39
   15 093    17    16    1.3    0.0   0.00   6.79    0.5    0.8    0.0    5.6   6.34   4.00    0.00    0.00   0.00   0.00   0.00   0.00   0.96   0.39
   15 094    18    17    1.4    0.0   0.00   6.87    0.6    0.9    0.0    5.9   6.34   3.94    0.00    0.00   0.00   0.00   0.00   0.00   0.95   0.39
   15 095    19    18    1.4    0.0   0.00   6.71    0.6    1.0    0.0    6.0   6.34   3.79    0.00    0.00   0.00   0.00   0.00   0.00   0.94   0.39
   15 096    20    19    1.4    0.0   0.00   6.50    0.6    1.0    0.0    6.0   6.34   3.68    0.00    0.00   0.00   0.00   0.00   0.00   0.93   0.39
   15 097    21    20    1.5    0.0   0.00   5.97    0.7    1.1    0.0    5.7   6.34   3.51    0.00    0.00   0.00   0.00   0.00   0.00   0.92   0.39
   15 098    22    21    1.6    0.0   0.00   4.98    0.8    1.1    0.0    4.9   6.34   3.31    0.00    0.00   0.00   0.00   0.00   0.00   0.92   0.39
   15 099    23    22    1.9    0.0   0.00   4.28    1.1    1.4    0.0    4.2   6.34   3.05    0.00    0.00   0.00   0.00   0.00   0.00   0.91   0.47
   15 100    24    23    2.7    0.0   0.00   5.02    1.9    2.1    0.0    5.1   6.34   2.84    0.00    0.00   0.25   0.50   0.75   0.75   0.90   0.63
   15 101    25    24    3.2    0.0   0.00   4.77    2.5    2.4    0.0    4.7   6.34   2.64    0.00    0.00   0.00   0.28   0.48   0.48   0.89   0.78
   15 102    26    25    4.1    0.0   0.00   4.89    3.3    3.1    0.0    4.9   6.34   2.41    0.00    0.00   0.01   0.34   0.56   0.56   0.88   0.94
   15 103    27    26    4.9    0.0   0.00   4.89    4.1    3.7    0.0    4.9   6.34   2.20    0.00    0.00   0.00   0.29   0.50   0.50   0.87   1.14
   15 104    28    27    5.7    0.0   0.00   5.02    4.9    4.3    0.0    5.2   6.34   1.95    0.00    0.00   0.00   0.28   0.48   0.48   0.86   1.33
   15 105    29    28    6.2    0.0   0.00   4.84    5.4    4.6    0.0    5.1   6.34   1.77    0.00    0.00   0.00   0.23   0.40   0.40   0.89   1.58
   15 106    30    29    6.7    0.0   0.00   4.73    5.9    4.9    0.0    5.0   6.34   1.67    0.00    0.00   0.00   0.26   0.46   0.46   0.93   1.82
   15 107    31    30    8.7    0.0   0.00   5.70    8.1    5.8    0.0    5.7   6.34   1.94    0.00    0.00   0.00   0.29   0.49   0.49   1.15   2.80
   15 108    32    31    9.5    0.0   0.00   5.81    9.2    6.3    0.0    5.8   6.34   2.03    0.00    0.00   0.00   0.00   0.00   0.00   1.38   3.24
   15 109    33    32   10.4    0.0   0.00   5.76   10.3    6.7    0.0    5.7   6.34   2.01    0.00    0.00   0.00   0.00   0.00   0.00   1.62   3.69
   15 110    34    33   11.8    0.0   0.00   5.67   11.9    7.4    0.0    5.6   6.34   1.95    0.00    0.00   0.00   0.00   0.00   0.00   1.78   4.38
   15 111    35    34   13.5    0.0   0.00   5.57   13.9    8.2    0.0    5.6   6.34   1.93    0.00    0.00   0.00   0.00   0.00   0.00   2.04   5.27
   15 112    36    35   15.6    0.0   0.00   5.52   16.3    9.3    0.0    5.5   6.34   1.93    0.00    0.00   0.00   0.00   0.00   0.00   2.35   6.33
   15 113    37    36   16.8    0.0   0.00   5.54   17.9    9.8    0.0    5.5   6.34   1.99    0.00    0.00   0.00   0.00   0.00   0.00   2.78   6.91
   15 114    38    37   18.7    0.0   0.00   5.45   20.4   10.8    0.0    5.4   6.34   1.94    0.00    0.00   0.00   0.00   0.00   0.00   3.28   7.88
   15 115    39    38   20.4    0.0   0.00   5.37   22.4   11.6    0.0    5.4   6.34   1.92    0.00    0.00   0.00   0.00   0.00   0.00   3.52   8.76
   15 116    40    39   23.0    0.0   0.00   5.27   25.4   12.9    0.0    5.3   6.34   1.91    0.00    0.00   0.00   0.00   0.00   0.00   3.92  10.07
   15 117    41    40   26.3    0.0   0.00   5.22   29.3   14.5    0.0    5.2   6.34   1.91    0.00    0.00   0.00   0.00   0.00   0.00   4.45  11.75
   15 118    42    41   28.2    0.0   0.00   5.23   31.6   15.5    0.0    5.2   6.34   1.93    0.00    0.00   0.00   0.00   0.00   0.00   4.74  12.73
   15 119    43    42   29.4    0.0   0.00   5.18   33.3   16.1    0.0    5.2   6.34   1.95    0.00    0.00   0.00   0.00   0.00   0.00   5.26  13.31
   15 120    44    43   32.1    0.0   0.00   5.13   36.6   17.4    0.0    5.1   6.34   1.93    0.00    0.00   0.00   0.00   0.00   0.00   5.87  14.67
   15 121    45    44   34.2    0.0   0.00   5.14   39.1   18.4    0.0    5.1   6.34   1.93    0.00    0.00   0.00   0.00   0.00   0.00   6.15  15.72
   15 122    46    45   36.7    0.0   0.00   5.07   42.1   19.7    0.0    5.1   6.34   1.92    0.00    0.00   0.00   0.00   0.00   0.00   6.55  17.02
   15 123    47    46   38.5    0.0   0.00   4.91   44.2   20.6    0.0    4.9   6.34   1.88    0.00    0.00   0.00   0.00   0.00   0.00   6.83  17.92
   15 124    48    47   41.4    0.0   0.00   4.72   47.6   22.0    0.0    4.7   6.34   1.83    0.00    0.00   0.00   0.00   0.00   0.00   7.29  19.36
   15 125    49    48   44.0    0.0   0.00   4.59   50.8   23.3    0.0    4.6   6.34   1.80    0.00    0.00   0.00   0.03   0.06   0.06   7.74  20.70
   15 126    50    49   45.1    0.0   0.00   4.38   52.2   23.8    0.0    4.4   6.34   1.65    0.00    0.00   0.00   0.06   0.12   0.12   7.98  21.25
   15 127    51    50   46.9    0.0   0.00   4.22   54.7   24.7    0.0    4.2   6.34   1.53    0.00    0.00   0.00   0.13   0.24   0.24   8.56  22.15
   15 128    52    51   49.1    0.0   0.00   4.08   57.8   25.8    0.0    4.1   6.34   1.45    0.00    0.00   0.00   0.17   0.31   0.31   9.39  23.26
   15 129    53    52   51.4    0.0   0.00   4.00   61.1   27.0    0.0    4.0   6.34   1.44    0.00    0.00   0.00   0.21   0.37   0.37  10.27  24.45
   15 130    54    53   53.6    0.0   0.00   3.93   64.3   28.1    0.0    4.0   6.34   1.42    0.00    0.00   0.00   0.22   0.39   0.39  11.13  25.56
   15 131    55    54   55.5    0.0   0.00   3.85   67.0   29.0    0.0    3.9   6.34   1.39    0.00    0.00   0.00   0.23   0.41   0.41  11.88  26.51
   15 132    56    55   57.1    0.0   0.00   3.68   69.4   29.8    0.0    3.7   6.34   1.31    0.00    0.00   0.00   0.24   0.43   0.43  12.51  27.30
   15 133    57    56   58.4    0.0   0.00   3.53   71.4   30.4    0.0    3.6   6.34   1.24    0.00    0.00   0.00   0.29   0.50   0.50  13.04  27.97
   15 134    58    57   59.6    0.0   0.00   3.43   73.2   31.0    0.0    3.5   6.34   1.21    0.00    0.00   0.01   0.34   0.57   0.57  13.51  28.57
   15 135    59    58   60.7    0.0   0.00   3.37   74.8   31.5    0.0    3.4   6.34   1.19    0.00    0.00   0.06   0.37   0.61   0.61  13.92  29.11
   15 136    60    59   61.6    0.0   0.00   3.30   76.2   32.0    0.0    3.3   6.34   1.17    0.00    0.00   0.07   0.38   0.62   0.62  14.27  29.58
   15 137    61    60   62.5    0.0   0.00   3.12   77.5   32.4    0.1    3.2   0.29   1.15    0.00    0.00   0.09   0.40   0.63   0.63  14.51  30.01
   15 138    62    61   63.4    0.0   0.00   2.91   78.6   32.8    0.1    3.0   0.26   1.13    0.00    0.00   0.19   0.46   0.71   0.71  14.68  30.40
   15 139    63    62   64.2    0.0   0.00   2.84   79.8   33.2    0.2    3.0   0.33   1.13    0.00    0.00   0.31   0.54   0.79   0.79  14.83  30.77
   15 140    64    63   64.9    0.0   0.00   2.81   80.8   33.5    0.3    2.9   0.39   1.13    0.00    0.00   0.34   0.56   0.81   0.81  14.96  31.12
   15 141    65    64   65.7    0.0   0.00   2.75   81.8   33.8    0.4    2.9   0.43   1.13    0.00    0.00   0.35   0.56   0.81   0.81  15.06  31.45
   15 142    66    65   66.4    0.0   0.00   2.66   82.8   34.1    0.5    2.8   0.43   1.12    0.00    0.00   0.37   0.58   0.82   0.82  15.16  31.77
   15 143    67    66   67.1    0.0   0.00   2.59   83.7   34.4    0.6    2.8   0.44   1.11    0.00    0.00   0.42   0.61   0.85   0.85  15.21  32.04
   15 144    68    67   67.7    0.0   0.00   2.55   84.4   34.6    0.7    2.7   0.45   1.10    0.00    0.00   0.45   0.63   0.86   0.86  15.25  32.28
   15 145    69    68   68.2    0.0   0.00   2.49   85.1   34.8    0.8    2.7   0.45   1.09    0.00    0.00   0.46   0.64   0.87   0.87  15.26  32.48
   15 146    70    69   68.6    0.0   0.00   2.44   85.7   35.0    0.9    2.6   0.45   1.08    0.00    0.00   0.48   0.66   0.88   0.88  15.25  32.67
   15 147    71    70   69.1    0.0   0.00   2.39   86.3   35.2    1.0    2.6   0.44   1.07    0.00    0.00   0.50   0.67   0.89   0.89  15.24  32.84
   15 148    72    71   69.5    0.0   0.00   2.32   86.8   35.3    1.1    2.5   0.42   1.05    0.00    0.00   0.52   0.68   0.90   0.90  15.22  33.00
   15 149    73    72   69.9    0.0   0.00   2.26   87.3   35.5    1.2    2.5   0.41   1.03    0.00    0.00   0.56   0.70   0.91   0.91  15.19  33.14
   15 150    74    73   70.2    0.0   0.00   2.22   87.8   35.6    1.3    2.5   0.41   1.02    0.00    0.00   0.58   0.72   0.92   0.92  15.16  33.28
   15 151    75    74   70.6    0.0   0.00   2.17   88.3   35.7    1.4    2.4   0.40   1.01    0.00    0.00   0.58   0.72   0.92   0.92  15.13  33.41
   15 152    76    75   75.0    0.0   0.00   2.26   94.3   37.2    2.9    2.5   0.74   1.09    0.00    0.00   0.59   0.72   0.92   0.92  16.53  34.94
   15 153    77    76   79.4    0.0   0.00   2.31  100.3   38.6    4.4    2.5   1.00   1.16    0.00    0.00   0.45   0.63   0.86   0.86  17.95  36.40
   15 154    78    77   83.8    0.0   0.00   2.34  106.3   39.9    6.2    2.5   1.21   1.23    0.00    0.00   0.32   0.55   0.80   0.80  19.40  37.76
   15 155    79    78   87.0    0.0   0.00   2.31  110.8   40.7    7.6    2.5   1.26   1.26    0.00    0.00   0.22   0.48   0.73   0.73  20.43  38.70
   15 156    80    79   88.5    0.0   0.00   2.24  112.9   41.1    8.3    2.5   1.19   1.25    0.00    0.00   0.18   0.45   0.70   0.70  20.81  39.09
   15 157    81    80   92.7    0.0   0.00   2.25  118.9   42.0   10.6    2.5   1.36   1.31    0.00    0.00   0.19   0.46   0.71   0.71  22.34  40.09
   15 158    82    81   95.1    0.0   0.00   2.21  122.2   42.4   12.1    2.4   1.34   1.32    0.00    0.00   0.07   0.38   0.62   0.62  23.13  40.56
   15 159    83    82   99.1    0.0   0.00   2.24  128.2   42.9   15.1    2.5   1.50   1.41    0.00    0.00   0.07   0.38   0.62   0.62  24.78  41.14
   15 160    84    83  102.0    0.0   0.00   2.27  132.6   43.0   17.7    2.5   1.62   1.48    0.00    0.00   0.00   0.28   0.48   0.48  26.01  41.33
   15 161    85    84  102.8    0.0   0.00   2.22  133.7   43.0   18.4    2.5   1.52   1.48    0.00    0.00   0.00   0.18   0.32   0.32  26.11  41.33
   15 162    86    85  103.3    0.0   0.00   2.15  134.5   43.0   19.0    2.5   1.37   1.47    0.00    0.00   0.00   0.12   0.22   0.22  26.10  41.33
   15 163    87    86  103.9    0.0   0.00   2.07  135.3   43.0   19.6    2.5   1.21   1.45    0.00    0.00   0.00   0.07   0.13   0.13  26.07  41.33
   15 164    88    87  104.6    0.0   0.00   2.00  136.2   43.0   20.2    2.5   1.12   1.43    0.00    0.00   0.00   0.08   0.16   0.16  26.02  41.33
   15 165    89    88  105.2    0.0   0.00   1.93  137.0   43.0   20.8    2.5   1.03   1.41    0.00    0.00   0.00   0.07   0.13   0.13  25.96  41.33
   15 166    90    89  105.8    0.0   0.00   1.90  137.8   43.0   21.5    2.5   1.00   1.40    0.00    0.00   0.00   0.09   0.17   0.17  25.90  41.33
   15 167    91    90  106.6    0.0   0.00   1.85  138.8   43.0   22.2    2.5   0.95   1.39    0.00    0.00   0.00   0.05   0.10   0.10  25.88  41.33
   15 168    92    91  107.3    0.0   0.00   1.80  139.8   43.0   23.0    2.5   0.90   1.37    0.00    0.00   0.00   0.05   0.09   0.09  25.85  41.33
   15 169    93    92  108.0    0.0   0.00   1.78  140.7   43.0   23.6    2.5   0.89   1.37    0.00    0.00   0.00   0.06   0.11   0.11  25.79  41.33
   15 170    94    93  108.7    0.0   0.00   1.74  141.6   43.0   24.3    2.5   0.86   1.36    0.00    0.00   0.00   0.02   0.04   0.04  25.74  41.33
   15 171    95    94  109.3    0.0   0.00   1.71  142.3   43.0   24.9    2.5   0.84   1.35    0.00    0.00   0.00   0.01   0.01   0.01  25.66  41.33
   15 172    96    95  109.8    0.0   0.00   1.68  143.1   43.0   25.5    2.5   0.81   1.34    0.00    0.00   0.00   0.00   0.00   0.00  25.56  41.33
   15 173    97    96  110.3    0.0   0.00   1.65  143.7   43.0   26.0    2.5   0.79   1.32    0.00    0.00   0.00   0.00   0.00   0.00  25.45  41.33
   15 174    98    97  110.8    0.0   0.00   1.61  144.3   43.0   26.4    2.5   0.76   1.32    0.00    0.00   0.00   0.00   0.00   0.00  25.33  41.33
   15 175    99    98  111.2    0.0   0.00   1.57  144.8   43.0   26.9    2.5   0.73   1.31    0.00    0.00   0.00   0.00   0.00   0.00  25.20  41.33
   15 176   100    99  111.6    0.0   0.00   1.53  145.4   43.0   27.3    2.5   0.70   1.30    0.00    0.00   0.00   0.00   0.00   0.00  25.06  41.33
   15 177   101   100  112.0    0.0   0.00   1.49  145.9   43.0   27.7    2.5   0.67   1.29    0.00    0.00   0.00   0.00   0.00   0.00  24.92  41.33
   15 178   102   101  112.3    0.0   0.00   1.46  146.3   43.0   28.0    2.5   0.65   1.28    0.00    0.00   0.00   0.00   0.00   0.00  24.78  41.33
   15 179   103   102  112.6    0.0   0.00   1.42  146.7   43.0   28.3    2.5   0.63   1.27    0.00    0.00   0.00   0.00   0.00   0.00  24.63  41.33
   15 180   104   103  112.9    0.0   0.00   1.39  147.1   43.0   28.6    2.5   0.61   1.26    0.00    0.00   0.00   0.00   0.00   0.00  24.49  41.33
   15 181   105   104  113.2    0.0   0.00   1.36  147.5   43.0   28.8    2.5   0.59   1.25    0.00    0.00   0.00   0.00   0.00   0.00  24.35  41.33
   15 182   106   105  113.4    0.0   0.00   1.33  147.8   43.0   29.1    2.5   0.57   1.24    0.00    0.00   0.00   0.00   0.00   0.00  24.20  41.33
   15 183   107   106  113.6    0.0   0.00   1.30  148.1   43.0   29.3    2.5   0.55   1.23    0.00    0.00   0.00   0.00   0.00   0.00  24.06  41.33
   15 184   108   107  113.8    0.0   0.00   1.27  148.3   43.0   29.4    2.5   0.53   1.22    0.00    0.00   0.00   0.00   0.00   0.00  23.93  41.33
   15 185   109   108  113.9   18.9   2.69   1.13  148.6   39.7   29.6    2.3   0.60   1.22    0.00    0.00   0.00   0.00   0.00   0.00  23.82  25.74
   15 186   110   109  114.0   24.2   2.56   1.08  148.8   36.2   29.7    2.1   0.61   1.22    0.00    0.00   0.00   0.00   0.00   0.00  23.71  23.93
   15 187   111   110  114.1   28.5   2.34   1.05  149.0   33.4   29.7    1.9   0.62   1.22    0.00    0.00   0.00   0.00   0.00   0.00  23.60  22.49
   15 188   112   111  115.2   33.7   2.32   1.01  153.3   29.9   30.9    1.7   0.66   1.37    0.00    0.00   0.00   0.00   0.00   0.00  26.49  20.68
   15 189   113   112  116.1   37.0   2.17   0.99  159.3   27.9   31.7    1.6   0.69   1.63    0.00    0.00   0.00   0.00   0.00   0.00  31.26  19.59
   15 190   114   113  116.1   39.9   2.08   0.96  161.0   26.2   31.4    1.5   0.70   1.71    0.00    0.00   0.00   0.00   0.00   0.00  32.70  18.69
   15 191   115   114  116.1   43.0   2.03   0.92  161.2   24.4   31.0    1.4   0.69   1.71    0.00    0.00   0.00   0.00   0.00   0.00  32.56  17.72
   15 192   116   115  116.1   46.9   2.02   0.88  161.4   22.2   30.4    1.3   0.68   1.71    0.00    0.00   0.00   0.00   0.00   0.00  32.40  16.56
   15 193   117   116  116.1   50.8   1.98   0.83  161.5   20.1   29.8    1.2   0.67   1.71    0.00    0.00   0.00   0.00   0.00   0.00  32.21  15.39
   15 194   118   117  116.1   54.2   1.92   0.81  161.6   18.4   29.1    1.1   0.68   1.71    0.00    0.00   0.00   0.00   0.00   0.00  31.93  14.43
   15 195   119   118  116.1   58.0   1.88   0.77  161.6   16.6   28.1    1.0   0.68   1.71    0.00    0.00   0.00   0.00   0.00   0.00  31.68  13.42
   15 196   120   119  116.1   62.0   1.85   0.73  161.7   14.9   26.9    0.9   0.67   1.71    0.00    0.00   0.00   0.00   0.00   0.00  31.41  12.40
   15 197   121   120  116.1   66.6   1.86   0.67  161.7   13.0   25.2    0.8   0.64   1.71    0.00    0.00   0.00   0.00   0.00   0.00  31.11  11.30
   15 198   122   121  117.7   71.8   1.91   0.63  161.8   11.7   23.7    0.7   0.62   1.63    0.00    0.00   0.00   0.00   0.00   0.00  29.34  10.47
   15 199   123   122  117.8   74.8   1.95   0.59  161.8   10.8   22.4    0.6   0.58   1.62    0.00    0.00   0.00   0.00   0.00   0.00  28.94   9.86
   15 200   124   123  118.3   77.5   1.98   0.56  161.8   10.1   21.4    0.6   0.56   1.59    0.00    0.00   0.00   0.00   0.00   0.00  28.21   9.38
   15 201   125   124  119.2   80.1   2.02   0.54  161.9    9.5   20.5    0.5   0.53   1.55    0.00    0.00   0.00   0.00   0.00   0.00  27.15   8.99
   15 202   126   125  120.1   82.6   2.05   0.52  161.9    9.1   19.8    0.5   0.51   1.50    0.00    0.00   0.00   0.00   0.00   0.00  25.94   8.65
   15 203   127   126  120.7   84.5   2.07   0.50  161.9    8.7   19.1    0.5   0.50   1.47    0.00    0.00   0.00   0.00   0.00   0.00  25.19   8.35
   15 204   128   127  120.8   85.9   2.09   0.48  161.9    8.4   18.5    0.5   0.48   1.46    0.00    0.00   0.00   0.00   0.00   0.00  24.83   8.08
   15 205   129   128  121.3   87.5   2.10   0.47  161.9    8.1   17.9    0.5   0.47   1.43    0.00    0.00   0.00   0.00   0.00   0.00  24.10   7.82
   15 206   130   129  121.9   89.1   2.12   0.45  161.9    7.9   17.4    0.5   0.45   1.40    0.00    0.00   0.00   0.00   0.00   0.00  23.35   7.59
   15 207   131   130  122.6   90.7   2.14   0.44  161.9    7.6   16.9    0.4   0.44   1.36    0.00    0.00   0.00   0.00   0.00   0.00  22.45   7.39
   15 208   132   131  123.1   92.0   2.15   0.43  162.2    7.4   16.4    0.4   0.43   1.35    0.00    0.00   0.00   0.00   0.00   0.00  22.08   7.19
   15 209   133   132  123.6   93.3   2.17   0.42  162.8    7.2   16.0    0.4   0.42   1.36    0.00    0.00   0.00   0.00   0.00   0.00  22.00   7.00
   15 210   134   133  123.9   94.4   2.18   0.41  163.7    7.1   15.6    0.4   0.41   1.40    0.00    0.00   0.00   0.00   0.00   0.00  22.35   6.83
   15 211   135   134  124.3   95.5   2.19   0.40  164.0    6.9   15.3    0.4   0.40   1.39    0.00    0.00   0.00   0.00   0.00   0.00  21.99   6.67
   15 212   136   135  124.6   96.5   2.20   0.39  164.0    6.7   14.9    0.4   0.39   1.38    0.00    0.00   0.00   0.00   0.00   0.00  21.59   6.50
   15 213   137   136  124.6   96.9   2.20   0.38  164.0    6.6   14.7    0.4   0.38   1.38    0.00    0.00   0.00   0.00   0.00   0.00  21.40   6.41
   15 214   138   137  124.6   97.4   2.21   0.38  164.0    6.5   14.4    0.4   0.38   1.38    0.00    0.00   0.00   0.00   0.00   0.00  21.21   6.30
   15 215   139   138  124.6   97.8   2.21   0.37  164.0    6.4   14.2    0.4   0.37   1.38    0.00    0.00   0.00   0.00   0.00   0.00  21.02   6.21
   15 216   140   139  124.6   97.9   2.21   0.37  164.0    6.4   14.1    0.4   0.37   1.38    0.00    0.00   0.00   0.00   0.00   0.00  20.84   6.17
   15 217   141   140  124.6   97.9   2.21   0.37  164.0    6.4   14.1    0.4   0.37   1.38    0.00    0.00   0.00   0.00   0.00   0.00  20.65   6.17
   15 218   142   141  124.6   97.9   2.21   0.37  164.0    6.4   14.1    0.4   0.37   1.39    0.00    0.00   0.00   0.00   0.00   0.00  20.47   6.17
   15 219   143   142  124.6   97.9   2.21   0.37  164.0    6.4   14.1    0.4   0.37   1.39    0.00    0.00   0.00   0.00   0.00   0.00  20.29   6.17
   15 220   144   143  124.6   97.9   2.21   0.37  164.0    6.4   14.1    0.4   0.37   1.39    0.00    0.00   0.00   0.00   0.00   0.00  20.11   6.17
   15 221   145   144  124.6   97.9   2.21   0.37  164.0    6.4   14.1    0.4   0.37   1.39    0.00    0.00   0.00   0.00   0.00   0.00  19.94   6.17
   15 222   146   145  124.6   97.9   2.21   0.37  164.0    6.4   14.1    0.4   0.37   1.39    0.00    0.00   0.00   0.00   0.00   0.00  19.76   6.17
   15 223   147   146  124.6   97.9   2.21   0.37  164.0    6.4   14.1    0.4   0.37   1.39    0.00    0.00   0.00   0.00   0.00   0.00  19.56   6.17
   15 224   148   147  124.6   97.9   2.21   0.37  164.0    6.4   14.1    0.4   0.37   1.39    0.00    0.00   0.00   0.00   0.00   0.00  19.56   6.17

*DSSAT Cropping System Model Ver. 4.8.5.000 -release  OCT 27, 2025 22:35:44

*RUN   3        : 3                         WHAPS048 TUDU1501    3
 MODEL          : WHAPS048 - Wheat
 EXPERIMENT     : TUDU1501 WH
 DATA PATH      :
 TREATMENT  3   : 3                         WHAPS048
  
@YEAR DOY   DAS   DAP   CNAD   GNAD   GN%D   VN%D   NUPC   LNAD   SNAD   LN%D   SN%D   RN%D   SNN0C   SNN1C NFact1 NFact2 NFact3 NFact4  RootN lfshthN
   15 077     1     0    0.0    0.0   0.00   0.00    0.0    0.0    0.0    0.0   0.00   0.00    0.00    0.00   0.00   0.00   0.00   0.00   0.00   0.00
   15 078     2     1    0.0    0.0   0.00   0.00    0.0    0.0    0.0    0.0   0.00   0.00    0.00    0.00   0.00   0.00   0.00   0.00   0.00   0.00
   15 079     3     2    0.0    0.0   0.00   0.00    0.0    0.0    0.0    0.0   0.00   0.00    0.00    0.00   0.00   0.00   0.00   0.00   0.00   0.00
   15 080     4     3    0.0    0.0   0.00   0.00    0.0    0.0    0.0    0.0   0.00   0.00    0.00    0.00   0.00   0.00   0.00   0.00   0.00   0.00
   15 081     5     4    0.0    0.0   0.00   0.00    0.0    0.0    0.0    0.0   0.00   0.00    0.00    0.00   0.00   0.00   0.00   0.00   0.00   0.00
   15 082     6     5    0.0    0.0   0.00   0.00    0.0    0.0    0.0    0.0   0.00   0.00    0.00    0.00   0.00   0.00   0.00   0.00   0.00   0.00
   15 083     7     6    0.0    0.0   0.00   0.00    0.0    0.0    0.0    0.0   0.00   0.00    0.00    0.00   0.00   0.00   0.00   0.00   0.00   0.00
   15 084     8     7    0.0    0.0   0.00   0.00    0.0    0.0    0.0    0.0   0.00   0.00    0.00    0.00   0.00   0.00   0.00   0.00   0.00   0.00
   15 085     9     8    0.0    0.0   0.00   0.00    0.0    0.0    0.0    0.0   0.00   0.00    0.00    0.00   0.00   0.00   0.00   0.00   0.00   0.00
   15 086    10     9    0.0    0.0   0.00   0.00    0.0    0.0    0.0    0.0   0.00   0.00    0.00    0.00   0.00   0.00   0.00   0.00   0.00   0.00
   15 087    11    10    0.0    0.0   0.00   0.00    0.0    0.0    0.0    0.0   0.00   0.00    0.00    0.00   0.00   0.00   0.00   0.00   0.00   0.00
   15 088    12    11    0.0    0.0   0.00   0.00    0.0    0.0    0.0    0.0   0.00   0.00    0.00    0.00   0.00   0.00   0.00   0.00   0.00   0.00
   15 089    13    12    1.0    0.0   0.00   9.01    0.2    0.5    0.0    5.6   6.34   4.42    0.00    0.00   0.00   0.00   0.00   0.00   1.00   0.39
   15 090    14    13    1.0    0.0   0.00   7.54    0.2    0.6    0.0    5.1   6.34   4.32    0.00    0.00   0.00   0.00   0.00   0.00   0.99   0.39
   15 091    15    14    1.2    0.0   0.00   8.02    0.4    0.8    0.0    6.0   6.34   4.22    0.00    0.00   0.00   0.00   0.00   0.00   0.98   0.39
   15 092    16    15    1.2    0.0   0.00   7.71    0.4    0.8    0.0    6.0   6.34   4.16    0.00    0.00   0.00   0.00   0.00   0.00   0.97   0.39
   15 093    17    16    1.3    0.0   0.00   6.79    0.5    0.8    0.0    5.6   6.34   4.00    0.00    0.00   0.00   0.00   0.00   0.00   0.96   0.39
   15 094    18    17    1.4    0.0   0.00   6.87    0.6    0.9    0.0    5.9   6.34   3.94    0.00    0.00   0.00   0.00   0.00   0.00   0.95   0.39
   15 095    19    18    1.4    0.0   0.00   6.71    0.6    1.0    0.0    6.0   6.34   3.79    0.00    0.00   0.00   0.00   0.00   0.00   0.94   0.39
   15 096    20    19    1.4    0.0   0.00   6.50    0.6    1.0    0.0    6.0   6.34   3.68    0.00    0.00   0.00   0.00   0.00   0.00   0.93   0.39
   15 097    21    20    1.5    0.0   0.00   5.97    0.7    1.1    0.0    5.7   6.34   3.51    0.00    0.00   0.00   0.00   0.00   0.00   0.92   0.39
   15 098    22    21    1.6    0.0   0.00   4.98    0.8    1.1    0.0    4.9   6.34   3.31    0.00    0.00   0.00   0.00   0.00   0.00   0.92   0.39
   15 099    23    22    1.9    0.0   0.00   4.28    1.1    1.4    0.0    4.2   6.34   3.05    0.00    0.00   0.00   0.00   0.00   0.00   0.91   0.47
   15 100    24    23    2.7    0.0   0.00   5.02    1.9    2.1    0.0    5.1   6.34   2.84    0.00    0.00   0.25   0.50   0.75   0.75   0.90   0.63
   15 101    25    24    3.2    0.0   0.00   4.77    2.5    2.4    0.0    4.7   6.34   2.64    0.00    0.00   0.00   0.28   0.48   0.48   0.89   0.78
   15 102    26    25    4.1    0.0   0.00   4.89    3.3    3.1    0.0    4.9   6.34   2.41    0.00    0.00   0.01   0.34   0.56   0.56   0.88   0.94
   15 103    27    26    4.7    0.0   0.00   4.72    3.9    3.6    0.0    4.7   6.34   2.20    0.00    0.00   0.00   0.29   0.50   0.50   0.87   1.10
   15 104    28    27    5.3    0.0   0.00   4.71    4.5    4.0    0.0    4.9   6.34   1.95    0.00    0.00   0.00   0.33   0.55   0.55   0.86   1.24
   15 105    29    28    5.8    0.0   0.00   4.52    5.0    4.3    0.0    4.8   6.34   1.75    0.00    0.00   0.00   0.32   0.54   0.54   0.88   1.45
   15 106    30    29    6.3    0.0   0.00   4.43    5.4    4.6    0.0    4.7   6.34   1.64    0.00    0.00   0.04   0.36   0.59   0.59   0.91   1.67
   15 107    31    30    7.0    0.0   0.00   4.60    6.2    4.9    0.0    4.8   6.34   1.65    0.00    0.00   0.07   0.38   0.61   0.61   0.98   2.00
   15 108    32    31    8.2    0.0   0.00   5.01    7.6    5.6    0.0    5.1   6.34   1.72    0.00    0.00   0.00   0.32   0.54   0.54   1.16   2.59
   15 109    33    32    9.5    0.0   0.00   5.27    9.2    6.2    0.0    5.3   6.34   1.78    0.00    0.00   0.00   0.19   0.34   0.34   1.43   3.24
   15 110    34    33   10.7    0.0   0.00   5.14   10.5    6.8    0.0    5.2   6.34   1.76    0.00    0.00   0.00   0.09   0.18   0.18   1.60   3.82
   15 111    35    34   11.7    0.0   0.00   4.85   11.8    7.3    0.0    5.0   6.34   1.67    0.00    0.00   0.00   0.12   0.22   0.22   1.75   4.37
   15 112    36    35   12.7    0.0   0.00   4.53   12.9    7.8    0.0    4.7   6.34   1.54    0.00    0.00   0.00   0.20   0.36   0.36   1.90   4.85
   15 113    37    36   13.6    0.0   0.00   4.53   14.0    8.3    0.0    4.7   6.34   1.48    0.00    0.00   0.00   0.30   0.50   0.50   2.09   5.30
   15 114    38    37   14.5    0.0   0.00   4.38   15.2    8.7    0.0    4.5   6.34   1.36    0.00    0.00   0.00   0.28   0.48   0.48   2.32   5.75
   15 115    39    38   15.5    0.0   0.00   4.22   16.4    9.2    0.0    4.4   6.34   1.38    0.00    0.00   0.00   0.32   0.54   0.54   2.54   6.27
   15 116    40    39   16.5    0.0   0.00   3.95   17.7    9.7    0.0    4.1   6.34   1.31    0.00    0.00   0.03   0.35   0.58   0.58   2.75   6.79
   15 117    41    40   17.8    0.0   0.00   3.85   19.3   10.3    0.0    4.0   6.34   1.24    0.00    0.00   0.14   0.43   0.67   0.67   3.05   7.42
   15 118    42    41   19.0    0.0   0.00   3.91   20.8   10.9    0.0    4.1   6.34   1.29    0.00    0.00   0.18   0.46   0.70   0.70   3.34   8.04
   15 119    43    42   20.2    0.0   0.00   3.98   22.3   11.5    0.0    4.1   6.34   1.31    0.00    0.00   0.14   0.43   0.67   0.67   3.65   8.64
   15 120    44    43   21.3    0.0   0.00   3.93   23.8   12.1    0.0    4.1   6.34   1.28    0.00    0.00   0.09   0.39   0.63   0.63   3.97   9.22
   15 121    45    44   22.1    0.0   0.00   3.87   24.9   12.4    0.0    4.0   6.34   1.28    0.00    0.00   0.10   0.40   0.64   0.64   4.16   9.63
   15 122    46    45   22.8    0.0   0.00   3.76   25.8   12.8    0.0    3.9   6.34   1.22    0.00    0.00   0.12   0.41   0.65   0.65   4.36  10.00
   15 123    47    46   23.5    0.0   0.00   3.60   26.7   13.1    0.0    3.7   6.34   1.21    0.00    0.00   0.16   0.44   0.69   0.69   4.49  10.33
   15 124    48    47   24.3    0.0   0.00   3.43   27.7   13.5    0.0    3.5   6.34   1.17    0.00    0.00   0.22   0.48   0.73   0.73   4.68  10.75
   15 125    49    48   25.1    0.0   0.00   3.31   28.8   13.9    0.0    3.4   6.34   1.16    0.00    0.00   0.30   0.53   0.78   0.78   4.85  11.18
   15 126    50    49   25.6    0.0   0.00   3.23   29.4   14.2    0.0    3.3   6.34   1.10    0.00    0.00   0.35   0.57   0.81   0.81   4.94  11.41
   15 127    51    50   26.2    0.0   0.00   3.15   30.2   14.5    0.0    3.3   6.34   1.06    0.00    0.00   0.38   0.59   0.83   0.83   5.09  11.73
   15 128    52    51   27.0    0.0   0.00   3.08   31.2   14.8    0.0    3.2   6.34   1.01    0.00    0.00   0.40   0.60   0.84   0.84   5.29  12.10
   15 129    53    52   27.7    0.0   0.00   3.03   32.2   15.2    0.0    3.1   6.34   1.00    0.00    0.00   0.43   0.62   0.86   0.86   5.48  12.46
   15 130    54    53   28.4    0.0   0.00   2.98   33.1   15.5    0.0    3.1   6.34   0.98    0.00    0.00   0.45   0.63   0.86   0.86   5.69  12.83
   15 131    55    54   29.1    0.0   0.00   2.94   34.1   15.9    0.0    3.0   6.34   0.96    0.00    0.00   0.46   0.64   0.87   0.87   5.88  13.16
   15 132    56    55   29.7    0.0   0.00   2.85   34.9   16.2    0.0    3.0   6.34   0.92    0.00    0.00   0.46   0.64   0.87   0.87   6.05  13.47
   15 133    57    56   30.3    0.0   0.00   2.78   35.7   16.5    0.0    2.9   6.34   0.89    0.00    0.00   0.50   0.66   0.89   0.89   6.23  13.77
   15 134    58    57   30.8    0.0   0.00   2.73   36.6   16.7    0.0    2.8   6.34   0.88    0.00    0.00   0.53   0.69   0.90   0.90   6.41  14.07
   15 135    59    58   31.4    0.0   0.00   2.71   37.4   17.0    0.0    2.8   6.34   0.89    0.00    0.00   0.54   0.70   0.91   0.91   6.58  14.37
   15 136    60    59   31.9    0.0   0.00   2.68   38.1   17.3    0.0    2.8   6.34   0.88    0.00    0.00   0.54   0.69   0.91   0.91   6.74  14.64
   15 137    61    60   32.5    0.0   0.00   2.61   38.8   17.5    0.0    2.7   0.48   0.88    0.00    0.00   0.54   0.70   0.91   0.91   6.87  14.89
   15 138    62    61   33.0    0.0   0.00   2.51   39.5   17.8    0.1    2.6   0.34   0.88    0.00    0.00   0.57   0.71   0.92   0.92   6.98  15.13
   15 139    63    62   33.5    0.0   0.00   2.48   40.2   18.0    0.1    2.6   0.37   0.88    0.00    0.00   0.62   0.75   0.94   0.94   7.09  15.37
   15 140    64    63   33.9    0.0   0.00   2.47   40.8   18.2    0.1    2.6   0.42   0.90    0.00    0.00   0.62   0.75   0.94   0.94   7.18  15.58
   15 141    65    64   34.3    0.0   0.00   2.44   41.3   18.4    0.2    2.6   0.42   0.90    0.00    0.00   0.61   0.74   0.93   0.93   7.25  15.76
   15 142    66    65   34.7    0.0   0.00   2.38   41.9   18.5    0.2    2.5   0.41   0.89    0.00    0.00   0.62   0.75   0.94   0.94   7.31  15.95
   15 143    67    66   35.1    0.0   0.00   2.34   42.4   18.7    0.3    2.5   0.41   0.89    0.00    0.00   0.65   0.77   0.95   0.95   7.37  16.11
   15 144    68    67   35.4    0.0   0.00   2.31   42.9   18.8    0.3    2.5   0.42   0.89    0.00    0.00   0.66   0.77   0.95   0.95   7.42  16.27
   15 145    69    68   35.8    0.0   0.00   2.28   43.3   19.0    0.4    2.5   0.42   0.89    0.00    0.00   0.66   0.77   0.95   0.95   7.46  16.42
   15 146    70    69   36.1    0.0   0.00   2.25   43.8   19.1    0.4    2.4   0.43   0.89    0.00    0.00   0.67   0.78   0.95   0.95   7.51  16.57
   15 147    71    70   36.4    0.0   0.00   2.22   44.2   19.3    0.5    2.4   0.44   0.89    0.00    0.00   0.68   0.79   0.95   0.95   7.55  16.71
   15 148    72    71   36.7    0.0   0.00   2.16   44.6   19.4    0.5    2.4   0.42   0.88    0.00    0.00   0.69   0.79   0.96   0.96   7.58  16.84
   15 149    73    72   37.0    0.0   0.00   2.12   45.1   19.5    0.6    2.3   0.42   0.87    0.00    0.00   0.71   0.81   0.96   0.96   7.61  16.97
   15 150    74    73   37.4    0.0   0.00   2.10   45.5   19.6    0.7    2.3   0.43   0.87    0.00    0.00   0.72   0.81   0.96   0.96   7.65  17.09
   15 151    75    74   37.7    0.0   0.00   2.06   45.9   19.7    0.7    2.3   0.43   0.87    0.00    0.00   0.71   0.81   0.96   0.96   7.68  17.21
   15 152    76    75   38.0    0.0   0.00   2.03   46.3   19.8    0.8    2.3   0.43   0.86    0.00    0.00   0.71   0.81   0.96   0.96   7.72  17.33
   15 153    77    76   38.3    0.0   0.00   2.00   46.8   19.9    0.9    2.3   0.43   0.86    0.00    0.00   0.70   0.80   0.96   0.96   7.76  17.44
   15 154    78    77   38.6    0.0   0.00   1.96   47.2   20.0    1.0    2.2   0.43   0.86    0.00    0.00   0.70   0.80   0.96   0.96   7.81  17.55
   15 155    79    78   38.9    0.0   0.00   1.93   47.6   20.1    1.1    2.2   0.43   0.85    0.00    0.00   0.69   0.79   0.96   0.96   7.87  17.67
   15 156    80    79   39.2    0.0   0.00   1.90   48.1   20.2    1.2    2.2   0.44   0.85    0.00    0.00   0.68   0.79   0.95   0.95   7.93  17.78
   15 157    81    80   39.6    0.0   0.00   1.87   48.7   20.3    1.4    2.2   0.45   0.85    0.00    0.00   0.66   0.78   0.95   0.95   8.02  17.89
   15 158    82    81   40.0    0.0   0.00   1.84   49.2   20.4    1.6    2.2   0.46   0.85    0.00    0.00   0.64   0.76   0.94   0.94   8.12  18.00
   15 159    83    82   40.4    0.0   0.00   1.84   49.9   20.5    1.8    2.2   0.48   0.87    0.00    0.00   0.63   0.76   0.94   0.94   8.27  18.12
   15 160    84    83   40.9    0.0   0.00   1.84   50.6   20.6    2.0    2.2   0.52   0.89    0.00    0.00   0.58   0.72   0.92   0.92   8.45  18.24
   15 161    85    84   41.3    0.0   0.00   1.82   51.3   20.7    2.3    2.2   0.53   0.91    0.00    0.00   0.50   0.67   0.89   0.89   8.63  18.34
   15 162    86    85   41.8    0.0   0.00   1.79   52.0   20.7    2.6    2.2   0.52   0.92    0.00    0.00   0.42   0.61   0.85   0.85   8.82  18.40
   15 163    87    86   42.1    0.0   0.00   1.73   52.7   20.7    3.0    2.2   0.50   0.92    0.00    0.00   0.35   0.57   0.81   0.81   9.00  18.44
   15 164    88    87   42.5    0.0   0.00   1.69   53.4   20.7    3.4    2.2   0.49   0.93    0.00    0.00   0.35   0.57   0.81   0.81   9.18  18.45
   15 165    89    88   42.9    0.0   0.00   1.64   54.0   20.7    3.8    2.2   0.48   0.93    0.00    0.00   0.32   0.55   0.79   0.79   9.34  18.45
   15 166    90    89   43.3    0.0   0.00   1.62   54.7   20.7    4.2    2.2   0.50   0.94    0.00    0.00   0.34   0.56   0.80   0.80   9.51  18.45
   15 167    91    90   43.8    0.0   0.00   1.58   55.4   20.7    4.6    2.2   0.50   0.95    0.00    0.00   0.27   0.52   0.77   0.77   9.69  18.45
   15 168    92    91   44.3    0.0   0.00   1.55   56.2   20.7    5.1    2.2   0.50   0.95    0.00    0.00   0.26   0.51   0.76   0.76   9.88  18.45
   15 169    93    92   44.7    0.0   0.00   1.53   56.8   20.7    5.5    2.2   0.51   0.96    0.00    0.00   0.27   0.51   0.76   0.76  10.02  18.45
   15 170    94    93   45.1    0.0   0.00   1.50   57.5   20.7    6.0    2.2   0.51   0.97    0.00    0.00   0.21   0.48   0.73   0.73  10.15  18.45
   15 171    95    94   45.6    0.0   0.00   1.48   58.2   20.7    6.4    2.2   0.51   0.97    0.00    0.00   0.20   0.47   0.71   0.71  10.28  18.45
   15 172    96    95   46.0    0.0   0.00   1.45   58.8   20.7    6.8    2.2   0.51   0.97    0.00    0.00   0.17   0.44   0.69   0.69  10.39  18.45
   15 173    97    96   46.3    0.0   0.00   1.42   59.3   20.7    7.1    2.2   0.50   0.97    0.00    0.00   0.12   0.41   0.66   0.66  10.46  18.45
   15 174    98    97   46.6    0.0   0.00   1.38   59.8   20.7    7.5    2.2   0.49   0.97    0.00    0.00   0.10   0.40   0.64   0.64  10.53  18.45
   15 175    99    98   47.0    0.0   0.00   1.34   60.4   20.7    7.9    2.2   0.47   0.97    0.00    0.00   0.09   0.39   0.63   0.63  10.60  18.45
   15 176   100    99   47.4    0.0   0.00   1.31   60.9   20.7    8.2    2.2   0.46   0.96    0.00    0.00   0.03   0.35   0.58   0.58  10.66  18.45
   15 177   101   100   47.7    0.0   0.00   1.27   61.4   20.7    8.5    2.2   0.44   0.96    0.00    0.00   0.00   0.28   0.49   0.49  10.71  18.45
   15 178   102   101   48.0    0.0   0.00   1.24   61.8   20.7    8.8    2.2   0.43   0.96    0.00    0.00   0.00   0.18   0.32   0.32  10.74  18.45
   15 179   103   102   48.3    0.0   0.00   1.21   62.3   20.7    9.1    2.2   0.42   0.96    0.00    0.00   0.00   0.00   0.00   0.00  10.78  18.45
   15 180   104   103   48.5    0.0   0.00   1.17   62.7   20.7    9.4    2.2   0.41   0.96    0.00    0.00   0.00   0.00   0.00   0.00  10.81  18.45
   15 181   105   104   48.8    0.0   0.00   1.14   63.1   20.7    9.7    2.2   0.40   0.96    0.00    0.00   0.00   0.00   0.00   0.00  10.84  18.45
   15 182   106   105   49.0    0.0   0.00   1.11   63.4   20.7    9.9    2.2   0.38   0.96    0.00    0.00   0.00   0.00   0.00   0.00  10.86  18.45
   15 183   107   106   49.3    0.0   0.00   1.08   63.8   20.7   10.1    2.2   0.37   0.96    0.00    0.00   0.00   0.00   0.00   0.00  10.89  18.45
   15 184   108   107   49.5    0.0   0.00   1.06   64.1   20.7   10.3    2.2   0.37   0.96    0.00    0.00   0.00   0.00   0.00   0.00  10.92  18.45
   15 185   109   108   49.6    9.7   2.69   0.91   64.4   18.8   10.5    2.0   0.41   0.96    0.00    0.00   0.00   0.00   0.00   0.00  10.97  10.66
   15 186   110   109   49.8   12.4   2.56   0.86   64.7   16.8   10.6    1.8   0.42   0.97    0.00    0.00   0.00   0.00   0.00   0.00  11.02   9.92
   15 187   111   110   49.9   14.6   2.34   0.82   65.0   15.3   10.8    1.6   0.43   0.97    0.00    0.00   0.00   0.00   0.00   0.00  11.07   9.32
   15 188   112   111   50.8   17.2   2.32   0.79   67.1   13.4   11.7    1.4   0.48   1.07    0.00    0.00   0.00   0.00   0.00   0.00  12.11   8.57
   15 189   113   112   53.2   18.9   2.17   0.81   73.1   12.1   14.1    1.3   0.59   1.37    0.00    0.00   0.00   0.00   0.00   0.00  15.54   8.09
   15 190   114   113   55.3   20.4   2.08   0.83   79.1   11.1   16.1    1.2   0.68   1.71    0.00    0.00   0.00   0.00   0.00   0.00  19.29   7.67
   15 191   115   114   55.3   22.0   2.03   0.79   79.3   10.1   15.9    1.1   0.66   1.72    0.00    0.00   0.00   0.00   0.00   0.00  19.34   7.27
   15 192   116   115   55.3   24.0   2.02   0.74   79.5    9.0   15.5    1.0   0.65   1.72    0.00    0.00   0.00   0.00   0.00   0.00  19.32   6.78
   15 193   117   116   55.3   26.0   1.98   0.70   79.6    7.9   15.1    0.8   0.64   1.71    0.00    0.00   0.00   0.00   0.00   0.00  19.27   6.29
   15 194   118   117   55.4   27.7   1.92   0.67   79.8    7.0   14.7    0.7   0.64   1.71    0.00    0.00   0.00   0.00   0.00   0.00  19.13   5.91
   15 195   119   118   55.9   29.6   1.88   0.64   80.4    6.5   14.2    0.7   0.63   1.71    0.00    0.00   0.00   0.00   0.00   0.00  19.04   5.62
   15 196   120   119   56.7   31.7   1.85   0.62   80.8    6.0   13.6    0.6   0.62   1.66    0.00    0.00   0.00   0.00   0.00   0.00  18.42   5.39
   15 197   121   120   58.0   34.1   1.86   0.60   81.1    5.7   13.0    0.6   0.60   1.56    0.00    0.00   0.00   0.00   0.00   0.00  17.25   5.20
   15 198   122   121   59.1   36.1   1.86   0.58   81.3    5.5   12.5    0.6   0.59   1.48    0.00    0.00   0.00   0.00   0.00   0.00  16.23   5.04
   15 199   123   122   59.9   37.8   1.83   0.57   81.5    5.3   12.0    0.6   0.58   1.43    0.00    0.00   0.00   0.00   0.00   0.00  15.51   4.89
   15 200   124   123   60.5   39.2   1.80   0.55   81.7    5.1   11.4    0.5   0.57   1.39    0.00    0.00   0.00   0.00   0.00   0.00  14.99   4.75
   15 201   125   124   60.9   40.5   1.77   0.54   81.9    4.9   10.9    0.5   0.55   1.36    0.00    0.00   0.00   0.00   0.00   0.00  14.61   4.62
   15 202   126   125   61.2   41.6   1.75   0.52   82.1    4.8   10.4    0.5   0.53   1.35    0.00    0.00   0.00   0.00   0.00   0.00  14.31   4.49
   15 203   127   126   61.5   42.6   1.73   0.50   82.2    4.6    9.9    0.5   0.51   1.34    0.00    0.00   0.00   0.00   0.00   0.00  14.06   4.36
   15 204   128   127   61.8   43.5   1.72   0.49   82.4    4.5    9.5    0.5   0.50   1.33    0.00    0.00   0.00   0.00   0.00   0.00  13.84   4.23
   15 205   129   128   61.9   44.4   1.71   0.47   82.5    4.4    9.1    0.5   0.48   1.32    0.00    0.00   0.00   0.00   0.00   0.00  13.65   4.11
   15 206   130   129   62.1   45.1   1.69   0.46   82.6    4.2    8.7    0.5   0.46   1.32    0.00    0.00   0.00   0.00   0.00   0.00  13.47   4.00
   15 207   131   130   62.3   45.8   1.69   0.44   82.7    4.1    8.4    0.4   0.44   1.31    0.00    0.00   0.00   0.00   0.00   0.00  13.31   3.90
   15 208   132   131   62.4   46.4   1.68   0.43   83.1    4.0    8.2    0.4   0.43   1.33    0.00    0.00   0.00   0.00   0.00   0.00  13.38   3.80
   15 209   133   132   62.6   47.0   1.67   0.42   83.6    3.9    8.0    0.4   0.42   1.36    0.00    0.00   0.00   0.00   0.00   0.00  13.56   3.70
   15 210   134   133   63.0   47.7   1.66   0.41   84.3    3.8    7.8    0.4   0.41   1.40    0.00    0.00   0.00   0.00   0.00   0.00  13.81   3.61
   15 211   135   134   63.4   48.5   1.65   0.40   84.7    3.7    7.6    0.4   0.40   1.39    0.00    0.00   0.00   0.00   0.00   0.00  13.58   3.53
   15 212   136   135   63.8   49.4   1.64   0.39   84.9    3.6    7.4    0.4   0.39   1.36    0.00    0.00   0.00   0.00   0.00   0.00  13.20   3.44
   15 213   137   136   64.2   50.1   1.63   0.38   85.0    3.6    7.2    0.4   0.39   1.34    0.00    0.00   0.00   0.00   0.00   0.00  12.84   3.35
   15 214   138   137   64.4   50.8   1.63   0.37   85.0    3.5    6.9    0.4   0.38   1.32    0.00    0.00   0.00   0.00   0.00   0.00  12.57   3.26
   15 215   139   138   64.6   51.4   1.62   0.36   85.1    3.4    6.7    0.4   0.36   1.31    0.00    0.00   0.00   0.00   0.00   0.00  12.35   3.16
   15 216   140   139   64.8   52.1   1.62   0.35   85.1    3.2    6.4    0.3   0.35   1.30    0.00    0.00   0.00   0.00   0.00   0.00  12.15   3.06
   15 217   141   140   64.9   52.7   1.63   0.34   85.1    3.1    6.1    0.3   0.34   1.30    0.00    0.00   0.00   0.05   0.10   0.10  11.98   2.96
   15 218   142   141   65.0   53.2   1.63   0.32   85.2    3.0    5.9    0.3   0.32   1.29    0.00    0.00   0.00   0.14   0.25   0.25  11.83   2.86
   15 219   143   142   65.0   53.6   1.64   0.31   85.2    2.9    5.7    0.3   0.31   1.30    0.00    0.00   0.00   0.19   0.35   0.35  11.77   2.76
   15 220   144   143   65.0   53.7   1.64   0.31   85.2    2.9    5.7    0.3   0.31   1.31    0.00    0.00   0.00   0.23   0.40   0.40  11.72   2.75
   15 221   145   144   65.0   53.7   1.64   0.31   85.2    2.9    5.7    0.3   0.31   1.32    0.00    0.00   0.00   0.09   0.18   0.18  11.67   2.75
   15 222   146   145   65.0   53.7   1.64   0.31   85.2    2.9    5.7    0.3   0.31   1.32    0.00    0.00   0.00   0.00   0.00   0.00  11.63   2.75
   15 223   147   146   65.0   53.7   1.64   0.31   85.2    2.9    5.7    0.3   0.31   1.32    0.00    0.00   0.00   0.00   0.00   0.00  11.52   2.75
   15 224   148   147   65.0   53.7   1.64   0.31   85.2    2.9    5.7    0.3   0.31   1.32    0.00    0.00   0.00   0.00   0.00   0.00  11.52   2.75

*DSSAT Cropping System Model Ver. 4.8.5.000 -release  OCT 27, 2025 22:35:44

*RUN   4        : 4                         WHAPS048 TUDU1501    4
 MODEL          : WHAPS048 - Wheat
 EXPERIMENT     : TUDU1501 WH
 DATA PATH      :
 TREATMENT  4   : 4                         WHAPS048
  
@YEAR DOY   DAS   DAP   CNAD   GNAD   GN%D   VN%D   NUPC   LNAD   SNAD   LN%D   SN%D   RN%D   SNN0C   SNN1C NFact1 NFact2 NFact3 NFact4  RootN lfshthN
   15 077     1     0    0.0    0.0   0.00   0.00    0.0    0.0    0.0    0.0   0.00   0.00    0.00    0.00   0.00   0.00   0.00   0.00   0.00   0.00
   15 078     2     1    0.0    0.0   0.00   0.00    0.0    0.0    0.0    0.0   0.00   0.00    0.00    0.00   0.00   0.00   0.00   0.00   0.00   0.00
   15 079     3     2    0.0    0.0   0.00   0.00    0.0    0.0    0.0    0.0   0.00   0.00    0.00    0.00   0.00   0.00   0.00   0.00   0.00   0.00
   15 080     4     3    0.0    0.0   0.00   0.00    0.0    0.0    0.0    0.0   0.00   0.00    0.00    0.00   0.00   0.00   0.00   0.00   0.00   0.00
   15 081     5     4    0.0    0.0   0.00   0.00    0.0    0.0    0.0    0.0   0.00   0.00    0.00    0.00   0.00   0.00   0.00   0.00   0.00   0.00
   15 082     6     5    0.0    0.0   0.00   0.00    0.0    0.0    0.0    0.0   0.00   0.00    0.00    0.00   0.00   0.00   0.00   0.00   0.00   0.00
   15 083     7     6    0.0    0.0   0.00   0.00    0.0    0.0    0.0    0.0   0.00   0.00    0.00    0.00   0.00   0.00   0.00   0.00   0.00   0.00
   15 084     8     7    0.0    0.0   0.00   0.00    0.0    0.0    0.0    0.0   0.00   0.00    0.00    0.00   0.00   0.00   0.00   0.00   0.00   0.00
   15 085     9     8    0.0    0.0   0.00   0.00    0.0    0.0    0.0    0.0   0.00   0.00    0.00    0.00   0.00   0.00   0.00   0.00   0.00   0.00
   15 086    10     9    0.0    0.0   0.00   0.00    0.0    0.0    0.0    0.0   0.00   0.00    0.00    0.00   0.00   0.00   0.00   0.00   0.00   0.00
   15 087    11    10    0.0    0.0   0.00   0.00    0.0    0.0    0.0    0.0   0.00   0.00    0.00    0.00   0.00   0.00   0.00   0.00   0.00   0.00
   15 088    12    11    0.0    0.0   0.00   0.00    0.0    0.0    0.0    0.0   0.00   0.00    0.00    0.00   0.00   0.00   0.00   0.00   0.00   0.00
   15 089    13    12    1.0    0.0   0.00   9.01    0.2    0.5    0.0    5.6   6.34   4.42    0.00    0.00   0.00   0.00   0.00   0.00   1.00   0.39
   15 090    14    13    1.0    0.0   0.00   7.54    0.2    0.6    0.0    5.1   6.34   4.32    0.00    0.00   0.00   0.00   0.00   0.00   0.99   0.39
   15 091    15    14    1.2    0.0   0.00   8.02    0.4    0.8    0.0    6.0   6.34   4.22    0.00    0.00   0.00   0.00   0.00   0.00   0.98   0.39
   15 092    16    15    1.2    0.0   0.00   7.71    0.4    0.8    0.0    6.0   6.34   4.16    0.00    0.00   0.00   0.00   0.00   0.00   0.97   0.39
   15 093    17    16    1.3    0.0   0.00   6.79    0.5    0.8    0.0    5.6   6.34   4.00    0.00    0.00   0.00   0.00   0.00   0.00   0.96   0.39
   15 094    18    17    1.4    0.0   0.00   6.87    0.6    0.9    0.0    5.9   6.34   3.94    0.00    0.00   0.00   0.00   0.00   0.00   0.95   0.39
   15 095    19    18    1.4    0.0   0.00   6.71    0.6    1.0    0.0    6.0   6.34   3.79    0.00    0.00   0.00   0.00   0.00   0.00   0.94   0.39
   15 096    20    19    1.4    0.0   0.00   6.50    0.6    1.0    0.0    6.0   6.34   3.68    0.00    0.00   0.00   0.00   0.00   0.00   0.93   0.39
   15 097    21    20    1.5    0.0   0.00   5.97    0.7    1.1    0.0    5.7   6.34   3.51    0.00    0.00   0.00   0.00   0.00   0.00   0.92   0.39
   15 098    22    21    1.6    0.0   0.00   4.98    0.8    1.1    0.0    4.9   6.34   3.31    0.00    0.00   0.00   0.00   0.00   0.00   0.92   0.39
   15 099    23    22    1.9    0.0   0.00   4.28    1.1    1.4    0.0    4.2   6.34   3.05    0.00    0.00   0.00   0.00   0.00   0.00   0.91   0.47
   15 100    24    23    2.7    0.0   0.00   5.02    1.9    2.1    0.0    5.1   6.34   2.84    0.00    0.00   0.25   0.50   0.75   0.75   0.90   0.63
   15 101    25    24    3.2    0.0   0.00   4.77    2.5    2.4    0.0    4.7   6.34   2.64    0.00    0.00   0.00   0.28   0.48   0.48   0.89   0.78
   15 102    26    25    4.1    0.0   0.00   4.89    3.3    3.1    0.0    4.9   6.34   2.41    0.00    0.00   0.01   0.34   0.56   0.56   0.88   0.94
   15 103    27    26    4.9    0.0   0.00   4.89    4.1    3.7    0.0    4.9   6.34   2.20    0.00    0.00   0.00   0.29   0.50   0.50   0.87   1.14
   15 104    28    27    5.6    0.0   0.00   5.01    4.8    4.3    0.0    5.2   6.34   1.95    0.00    0.00   0.00   0.28   0.48   0.48   0.86   1.32
   15 105    29    28    6.2    0.0   0.00   4.82    5.4    4.6    0.0    5.1   6.34   1.77    0.00    0.00   0.00   0.23   0.41   0.41   0.89   1.57
   15 106    30    29    6.7    0.0   0.00   4.71    5.9    4.8    0.0    5.0   6.34   1.67    0.00    0.00   0.00   0.27   0.47   0.47   0.93   1.81
   15 107    31    30    8.7    0.0   0.00   5.70    8.1    5.8    0.0    5.7   6.34   1.94    0.00    0.00   0.00   0.29   0.50   0.50   1.15   2.80
   15 108    32    31    9.5    0.0   0.00   5.81    9.2    6.3    0.0    5.8   6.34   2.03    0.00    0.00   0.00   0.00   0.00   0.00   1.38   3.24
   15 109    33    32   10.4    0.0   0.00   5.76   10.3    6.7    0.0    5.7   6.34   2.01    0.00    0.00   0.00   0.00   0.00   0.00   1.62   3.69
   15 110    34    33   11.8    0.0   0.00   5.67   11.9    7.4    0.0    5.6   6.34   1.95    0.00    0.00   0.00   0.00   0.00   0.00   1.78   4.38
   15 111    35    34   13.5    0.0   0.00   5.57   13.9    8.2    0.0    5.6   6.34   1.93    0.00    0.00   0.00   0.00   0.00   0.00   2.04   5.27
   15 112    36    35   15.6    0.0   0.00   5.52   16.3    9.3    0.0    5.5   6.34   1.93    0.00    0.00   0.00   0.00   0.00   0.00   2.35   6.33
   15 113    37    36   16.8    0.0   0.00   5.54   17.9    9.8    0.0    5.5   6.34   1.99    0.00    0.00   0.00   0.00   0.00   0.00   2.78   6.91
   15 114    38    37   18.7    0.0   0.00   5.45   20.4   10.8    0.0    5.4   6.34   1.94    0.00    0.00   0.00   0.00   0.00   0.00   3.28   7.88
   15 115    39    38   20.4    0.0   0.00   5.37   22.4   11.6    0.0    5.4   6.34   1.92    0.00    0.00   0.00   0.00   0.00   0.00   3.52   8.76
   15 116    40    39   23.0    0.0   0.00   5.27   25.4   12.9    0.0    5.3   6.34   1.91    0.00    0.00   0.00   0.00   0.00   0.00   3.92  10.07
   15 117    41    40   26.3    0.0   0.00   5.22   29.3   14.5    0.0    5.2   6.34   1.91    0.00    0.00   0.00   0.00   0.00   0.00   4.45  11.75
   15 118    42    41   28.2    0.0   0.00   5.23   31.6   15.5    0.0    5.2   6.34   1.93    0.00    0.00   0.00   0.00   0.00   0.00   4.74  12.73
   15 119    43    42   29.4    0.0   0.00   5.18   33.3   16.1    0.0    5.2   6.34   1.95    0.00    0.00   0.00   0.00   0.00   0.00   5.26  13.31
   15 120    44    43   32.1    0.0   0.00   5.13   36.6   17.4    0.0    5.1   6.34   1.93    0.00    0.00   0.00   0.00   0.00   0.00   5.87  14.67
   15 121    45    44   34.2    0.0   0.00   5.14   39.1   18.4    0.0    5.1   6.34   1.93    0.00    0.00   0.00   0.00   0.00   0.00   6.15  15.72
   15 122    46    45   36.7    0.0   0.00   5.07   42.1   19.7    0.0    5.1   6.34   1.92    0.00    0.00   0.00   0.00   0.00   0.00   6.55  17.02
   15 123    47    46   38.5    0.0   0.00   4.91   44.2   20.6    0.0    4.9   6.34   1.88    0.00    0.00   0.00   0.00   0.00   0.00   6.82  17.89
   15 124    48    47   41.2    0.0   0.00   4.70   47.4   21.9    0.0    4.7   6.34   1.82    0.00    0.00   0.00   0.00   0.00   0.00   7.26  19.27
   15 125    49    48   43.8    0.0   0.00   4.57   50.5   23.2    0.0    4.6   6.34   1.79    0.00    0.00   0.00   0.04   0.08   0.08   7.69  20.58
   15 126    50    49   44.9    0.0   0.00   4.36   51.9   23.7    0.0    4.4   6.34   1.64    0.00    0.00   0.00   0.07   0.14   0.14   7.94  21.13
   15 127    51    50   46.6    0.0   0.00   4.20   54.3   24.6    0.0    4.2   6.34   1.52    0.00    0.00   0.00   0.14   0.25   0.25   8.50  22.01
   15 128    52    51   48.8    0.0   0.00   4.06   57.4   25.7    0.0    4.1   6.34   1.44    0.00    0.00   0.00   0.18   0.32   0.32   9.32  23.12
   15 129    53    52   51.1    0.0   0.00   3.99   60.7   26.8    0.0    4.0   6.34   1.43    0.00    0.00   0.00   0.21   0.38   0.38  10.19  24.29
   15 130    54    53   53.3    0.0   0.00   3.92   63.9   27.9    0.0    3.9   6.34   1.41    0.00    0.00   0.00   0.23   0.40   0.40  11.04  25.39
   15 131    55    54   55.2    0.0   0.00   3.83   66.6   28.8    0.0    3.9   6.34   1.38    0.00    0.00   0.00   0.24   0.42   0.42  11.78  26.33
   15 132    56    55   56.7    0.0   0.00   3.67   68.9   29.6    0.0    3.7   6.34   1.30    0.00    0.00   0.00   0.25   0.44   0.44  12.40  27.12
   15 133    57    56   58.1    0.0   0.00   3.52   70.9   30.2    0.0    3.6   6.34   1.24    0.00    0.00   0.00   0.30   0.51   0.51  12.93  27.78
   15 134    58    57   59.2    0.0   0.00   3.42   72.6   30.8    0.0    3.5   6.34   1.20    0.00    0.00   0.02   0.35   0.57   0.57  13.39  28.38
   15 135    59    58   60.3    0.0   0.00   3.36   74.2   31.4    0.0    3.4   6.34   1.18    0.00    0.00   0.06   0.38   0.61   0.61  13.80  28.91
   15 136    60    59   61.2    0.0   0.00   3.30   75.7   31.8    0.0    3.3   6.34   1.16    0.00    0.00   0.08   0.39   0.62   0.62  14.15  29.38
   15 137    61    60   62.1    0.0   0.00   3.11   76.9   32.2    0.1    3.2   0.29   1.15    0.00    0.00   0.10   0.40   0.64   0.64  14.39  29.81
   15 138    62    61   62.9    0.0   0.00   2.91   78.1   32.6    0.1    3.0   0.26   1.12    0.00    0.00   0.20   0.46   0.71   0.71  14.56  30.20
   15 139    63    62   63.8    0.0   0.00   2.84   79.2   33.0    0.2    3.0   0.33   1.12    0.00    0.00   0.31   0.54   0.79   0.79  14.71  30.56
   15 140    64    63   64.5    0.0   0.00   2.81   80.3   33.3    0.3    2.9   0.39   1.13    0.00    0.00   0.35   0.56   0.81   0.81  14.84  30.91
   15 141    65    64   65.3    0.0   0.00   2.75   81.3   33.6    0.4    2.9   0.43   1.13    0.00    0.00   0.35   0.57   0.81   0.81  14.94  31.24
   15 142    66    65   66.0    0.0   0.00   2.65   82.3   33.9    0.5    2.8   0.43   1.11    0.00    0.00   0.37   0.58   0.83   0.83  15.04  31.56
   15 143    67    66   66.7    0.0   0.00   2.59   83.1   34.2    0.6    2.8   0.44   1.10    0.00    0.00   0.42   0.62   0.85   0.85  15.10  31.83
   15 144    68    67   67.2    0.0   0.00   2.54   83.9   34.4    0.7    2.7   0.45   1.10    0.00    0.00   0.45   0.63   0.87   0.87  15.13  32.07
   15 145    69    68   67.7    0.0   0.00   2.48   84.5   34.6    0.8    2.7   0.44   1.08    0.00    0.00   0.46   0.64   0.87   0.87  15.14  32.27
   15 146    70    69   68.2    0.0   0.00   2.44   85.1   34.8    0.9    2.6   0.45   1.07    0.00    0.00   0.49   0.66   0.88   0.88  15.14  32.46
   15 147    71    70   68.6    0.0   0.00   2.39   85.7   35.0    1.0    2.6   0.44   1.06    0.00    0.00   0.51   0.67   0.89   0.89  15.13  32.63
   15 148    72    71   69.0    0.0   0.00   2.31   86.3   35.1    1.1    2.5   0.42   1.04    0.00    0.00   0.52   0.68   0.90   0.90  15.11  32.78
   15 149    73    72   69.4    0.0   0.00   2.26   86.8   35.3    1.2    2.5   0.41   1.03    0.00    0.00   0.56   0.71   0.91   0.91  15.08  32.93
   15 150    74    73   69.8    0.0   0.00   2.22   87.3   35.4    1.3    2.5   0.41   1.02    0.00    0.00   0.58   0.72   0.92   0.92  15.06  33.07
   15 151    75    74   70.2    0.0   0.00   2.17   87.8   35.5    1.4    2.4   0.40   1.00    0.00    0.00   0.58   0.72   0.92   0.92  15.03  33.20
   15 152    76    75   74.6    0.0   0.00   2.26   93.8   37.0    2.9    2.5   0.74   1.09    0.00    0.00   0.59   0.73   0.92   0.92  16.42  34.73
   15 153    77    76   79.0    0.0   0.00   2.31   99.8   38.4    4.4    2.5   1.01   1.16    0.00    0.00   0.45   0.63   0.86   0.86  17.85  36.19
[...]
   15 092    16    15    1.2    0.0   0.00   7.71    0.4    0.8    0.0    6.0   6.34   4.16    0.00    0.00   0.00   0.00   0.00   0.00   0.97   0.39
   15 093    17    16    1.3    0.0   0.00   6.79    0.5    0.8    0.0    5.6   6.34   4.00    0.00    0.00   0.00   0.00   0.00   0.00   0.96   0.39
   15 094    18    17    1.4    0.0   0.00   6.87    0.6    0.9    0.0    5.9   6.34   3.94    0.00    0.00   0.00   0.00   0.00   0.00   0.95   0.39
   15 095    19    18    1.4    0.0   0.00   6.71    0.6    1.0    0.0    6.0   6.34   3.79    0.00    0.00   0.00   0.00   0.00   0.00   0.94   0.39
   15 096    20    19    1.4    0.0   0.00   6.50    0.6    1.0    0.0    6.0   6.34   3.68    0.00    0.00   0.00   0.00   0.00   0.00   0.93   0.39
   15 097    21    20    1.5    0.0   0.00   5.97    0.7    1.1    0.0    5.7   6.34   3.51    0.00    0.00   0.00   0.00   0.00   0.00   0.92   0.39
   15 098    22    21    1.6    0.0   0.00   4.98    0.8    1.1    0.0    4.9   6.34   3.31    0.00    0.00   0.00   0.00   0.00   0.00   0.92   0.39
   15 099    23    22    1.9    0.0   0.00   4.28    1.1    1.4    0.0    4.2   6.34   3.05    0.00    0.00   0.00   0.00   0.00   0.00   0.91   0.47
   15 100    24    23    2.7    0.0   0.00   5.02    1.9    2.1    0.0    5.1   6.34   2.84    0.00    0.00   0.25   0.50   0.75   0.75   0.90   0.63
   15 101    25    24    3.2    0.0   0.00   4.77    2.5    2.4    0.0    4.7   6.34   2.64    0.00    0.00   0.00   0.28   0.48   0.48   0.89   0.78
   15 102    26    25    4.1    0.0   0.00   4.89    3.3    3.1    0.0    4.9   6.34   2.41    0.00    0.00   0.01   0.34   0.56   0.56   0.88   0.94
   15 103    27    26    4.7    0.0   0.00   4.72    3.9    3.6    0.0    4.7   6.34   2.20    0.00    0.00   0.00   0.29   0.50   0.50   0.87   1.10
   15 104    28    27    5.3    0.0   0.00   4.71    4.5    4.0    0.0    4.9   6.34   1.95    0.00    0.00   0.00   0.33   0.55   0.55   0.86   1.24
   15 105    29    28    5.8    0.0   0.00   4.52    5.0    4.3    0.0    4.8   6.34   1.75    0.00    0.00   0.00   0.32   0.54   0.54   0.88   1.45
   15 106    30    29    6.3    0.0   0.00   4.43    5.4    4.6    0.0    4.7   6.34   1.64    0.00    0.00   0.04   0.36   0.59   0.59   0.91   1.67
   15 107    31    30    7.0    0.0   0.00   4.60    6.2    4.9    0.0    4.8   6.34   1.65    0.00    0.00   0.07   0.38   0.61   0.61   0.98   2.00
   15 108    32    31    8.2    0.0   0.00   5.01    7.6    5.6    0.0    5.1   6.34   1.72    0.00    0.00   0.00   0.32   0.54   0.54   1.16   2.59
   15 109    33    32    9.5    0.0   0.00   5.27    9.2    6.2    0.0    5.3   6.34   1.78    0.00    0.00   0.00   0.19   0.34   0.34   1.43   3.24
   15 110    34    33   10.7    0.0   0.00   5.14   10.5    6.8    0.0    5.2   6.34   1.76    0.00    0.00   0.00   0.09   0.18   0.18   1.60   3.82
   15 111    35    34   11.7    0.0   0.00   4.85   11.8    7.3    0.0    5.0   6.34   1.67    0.00    0.00   0.00   0.12   0.22   0.22   1.75   4.37
   15 112    36    35   12.7    0.0   0.00   4.53   12.9    7.8    0.0    4.7   6.34   1.54    0.00    0.00   0.00   0.20   0.36   0.36   1.90   4.85
   15 113    37    36   13.6    0.0   0.00   4.53   14.0    8.3    0.0    4.7   6.34   1.48    0.00    0.00   0.00   0.30   0.50   0.50   2.09   5.30
   15 114    38    37   14.5    0.0   0.00   4.38   15.2    8.7    0.0    4.5   6.34   1.36    0.00    0.00   0.00   0.28   0.48   0.48   2.32   5.75
   15 115    39    38   15.5    0.0   0.00   4.22   16.4    9.2    0.0    4.4   6.34   1.38    0.00    0.00   0.00   0.32   0.54   0.54   2.54   6.27
   15 116    40    39   16.5    0.0   0.00   3.95   17.7    9.7    0.0    4.1   6.34   1.31    0.00    0.00   0.03   0.35   0.58   0.58   2.75   6.79
   15 117    41    40   17.8    0.0   0.00   3.85   19.3   10.3    0.0    4.0   6.34   1.24    0.00    0.00   0.14   0.43   0.67   0.67   3.05   7.42
   15 118    42    41   19.0    0.0   0.00   3.91   20.8   10.9    0.0    4.1   6.34   1.29    0.00    0.00   0.18   0.46   0.70   0.70   3.34   8.04
   15 119    43    42   20.2    0.0   0.00   3.98   22.3   11.5    0.0    4.1   6.34   1.31    0.00    0.00   0.14   0.43   0.67   0.67   3.65   8.64
   15 120    44    43   21.3    0.0   0.00   3.93   23.8   12.1    0.0    4.1   6.34   1.28    0.00    0.00   0.09   0.39   0.63   0.63   3.97   9.22
   15 121    45    44   22.1    0.0   0.00   3.87   24.9   12.4    0.0    4.0   6.34   1.28    0.00    0.00   0.10   0.40   0.64   0.64   4.16   9.63
   15 122    46    45   22.8    0.0   0.00   3.76   25.8   12.8    0.0    3.9   6.34   1.22    0.00    0.00   0.12   0.41   0.65   0.65   4.36  10.00
   15 123    47    46   23.5    0.0   0.00   3.60   26.7   13.1    0.0    3.7   6.34   1.21    0.00    0.00   0.16   0.44   0.69   0.69   4.49  10.33
   15 124    48    47   24.3    0.0   0.00   3.43   27.7   13.5    0.0    3.5   6.34   1.17    0.00    0.00   0.22   0.48   0.73   0.73   4.68  10.75
   15 125    49    48   25.1    0.0   0.00   3.31   28.8   13.9    0.0    3.4   6.34   1.16    0.00    0.00   0.30   0.53   0.78   0.78   4.85  11.18
   15 126    50    49   25.6    0.0   0.00   3.23   29.4   14.2    0.0    3.3   6.34   1.10    0.00    0.00   0.35   0.57   0.81   0.81   4.94  11.41
   15 127    51    50   26.2    0.0   0.00   3.15   30.2   14.5    0.0    3.3   6.34   1.06    0.00    0.00   0.38   0.59   0.83   0.83   5.09  11.73
   15 128    52    51   27.0    0.0   0.00   3.08   31.2   14.8    0.0    3.2   6.34   1.01    0.00    0.00   0.40   0.60   0.84   0.84   5.29  12.10
   15 129    53    52   27.7    0.0   0.00   3.03   32.2   15.2    0.0    3.1   6.34   1.00    0.00    0.00   0.43   0.62   0.86   0.86   5.48  12.46
   15 130    54    53   28.4    0.0   0.00   2.98   33.1   15.5    0.0    3.1   6.34   0.98    0.00    0.00   0.45   0.63   0.86   0.86   5.69  12.83
   15 131    55    54   29.1    0.0   0.00   2.94   34.1   15.9    0.0    3.0   6.34   0.96    0.00    0.00   0.46   0.64   0.87   0.87   5.88  13.16
   15 132    56    55   29.7    0.0   0.00   2.85   34.9   16.2    0.0    3.0   6.34   0.92    0.00    0.00   0.46   0.64   0.87   0.87   6.05  13.47
   15 133    57    56   30.3    0.0   0.00   2.78   35.7   16.5    0.0    2.9   6.34   0.89    0.00    0.00   0.50   0.66   0.89   0.89   6.23  13.77
   15 134    58    57   30.8    0.0   0.00   2.73   36.6   16.7    0.0    2.8   6.34   0.88    0.00    0.00   0.53   0.69   0.90   0.90   6.41  14.07
   15 135    59    58   31.4    0.0   0.00   2.71   37.4   17.0    0.0    2.8   6.34   0.89    0.00    0.00   0.54   0.70   0.91   0.91   6.58  14.37
   15 136    60    59   31.9    0.0   0.00   2.68   38.1   17.3    0.0    2.8   6.34   0.88    0.00    0.00   0.54   0.69   0.91   0.91   6.74  14.64
   15 137    61    60   32.5    0.0   0.00   2.61   38.8   17.5    0.0    2.7   0.48   0.88    0.00    0.00   0.54   0.70   0.91   0.91   6.87  14.89
   15 138    62    61   33.0    0.0   0.00   2.51   39.5   17.8    0.1    2.6   0.34   0.88    0.00    0.00   0.57   0.71   0.92   0.92   6.98  15.13
   15 139    63    62   33.5    0.0   0.00   2.48   40.2   18.0    0.1    2.6   0.37   0.88    0.00    0.00   0.62   0.75   0.94   0.94   7.09  15.37
   15 140    64    63   33.9    0.0   0.00   2.47   40.8   18.2    0.1    2.6   0.42   0.90    0.00    0.00   0.62   0.75   0.94   0.94   7.18  15.58
   15 141    65    64   34.3    0.0   0.00   2.44   41.3   18.4    0.2    2.6   0.42   0.90    0.00    0.00   0.61   0.74   0.93   0.93   7.25  15.76
   15 142    66    65   34.7    0.0   0.00   2.38   41.9   18.5    0.2    2.5   0.41   0.89    0.00    0.00   0.62   0.75   0.94   0.94   7.31  15.95
   15 143    67    66   35.1    0.0   0.00   2.34   42.4   18.7    0.3    2.5   0.41   0.89    0.00    0.00   0.65   0.77   0.95   0.95   7.37  16.11
   15 144    68    67   35.4    0.0   0.00   2.31   42.9   18.8    0.3    2.5   0.42   0.89    0.00    0.00   0.66   0.77   0.95   0.95   7.42  16.27
   15 145    69    68   35.8    0.0   0.00   2.28   43.3   19.0    0.4    2.5   0.42   0.89    0.00    0.00   0.66   0.77   0.95   0.95   7.46  16.42
   15 146    70    69   36.1    0.0   0.00   2.25   43.8   19.1    0.4    2.4   0.43   0.89    0.00    0.00   0.67   0.78   0.95   0.95   7.51  16.57
   15 147    71    70   36.4    0.0   0.00   2.22   44.2   19.3    0.5    2.4   0.44   0.89    0.00    0.00   0.68   0.79   0.95   0.95   7.55  16.71
   15 148    72    71   36.7    0.0   0.00   2.16   44.6   19.4    0.5    2.4   0.42   0.88    0.00    0.00   0.69   0.79   0.96   0.96   7.58  16.84
   15 149    73    72   37.0    0.0   0.00   2.12   45.1   19.5    0.6    2.3   0.42   0.87    0.00    0.00   0.71   0.81   0.96   0.96   7.61  16.97
   15 150    74    73   37.4    0.0   0.00   2.10   45.5   19.6    0.7    2.3   0.43   0.87    0.00    0.00   0.72   0.81   0.96   0.96   7.65  17.09
   15 151    75    74   37.7    0.0   0.00   2.06   45.9   19.7    0.7    2.3   0.43   0.87    0.00    0.00   0.71   0.81   0.96   0.96   7.68  17.21
   15 152    76    75   38.0    0.0   0.00   2.03   46.3   19.8    0.8    2.3   0.43   0.86    0.00    0.00   0.71   0.81   0.96   0.96   7.72  17.33
   15 153    77    76   38.3    0.0   0.00   2.00   46.8   19.9    0.9    2.3   0.43   0.86    0.00    0.00   0.70   0.80   0.96   0.96   7.76  17.44
   15 154    78    77   38.6    0.0   0.00   1.96   47.2   20.0    1.0    2.2   0.43   0.86    0.00    0.00   0.70   0.80   0.96   0.96   7.81  17.55
   15 155    79    78   38.9    0.0   0.00   1.93   47.6   20.1    1.1    2.2   0.43   0.85    0.00    0.00   0.69   0.79   0.96   0.96   7.87  17.67
   15 156    80    79   39.2    0.0   0.00   1.90   48.1   20.2    1.2    2.2   0.44   0.85    0.00    0.00   0.68   0.79   0.95   0.95   7.93  17.78
   15 157    81    80   39.6    0.0   0.00   1.87   48.7   20.3    1.4    2.2   0.45   0.85    0.00    0.00   0.66   0.78   0.95   0.95   8.02  17.89
   15 158    82    81   40.0    0.0   0.00   1.84   49.2   20.4    1.6    2.2   0.46   0.85    0.00    0.00   0.64   0.76   0.94   0.94   8.12  18.00
   15 159    83    82   40.4    0.0   0.00   1.84   49.9   20.5    1.8    2.2   0.48   0.87    0.00    0.00   0.63   0.76   0.94   0.94   8.27  18.12
   15 160    84    83   40.9    0.0   0.00   1.84   50.6   20.6    2.0    2.2   0.52   0.89    0.00    0.00   0.58   0.72   0.92   0.92   8.45  18.24
   15 161    85    84   41.3    0.0   0.00   1.82   51.3   20.7    2.3    2.2   0.53   0.91    0.00    0.00   0.50   0.67   0.89   0.89   8.63  18.34
   15 162    86    85   41.8    0.0   0.00   1.79   52.0   20.7    2.6    2.2   0.52   0.92    0.00    0.00   0.42   0.61   0.85   0.85   8.82  18.40
   15 163    87    86   42.1    0.0   0.00   1.73   52.7   20.7    3.0    2.2   0.50   0.92    0.00    0.00   0.35   0.57   0.81   0.81   9.00  18.44
   15 164    88    87   42.5    0.0   0.00   1.69   53.4   20.7    3.4    2.2   0.49   0.93    0.00    0.00   0.35   0.57   0.81   0.81   9.18  18.45
   15 165    89    88   42.9    0.0   0.00   1.64   54.0   20.7    3.8    2.2   0.48   0.93    0.00    0.00   0.32   0.55   0.79   0.79   9.34  18.45
   15 166    90    89   43.3    0.0   0.00   1.62   54.7   20.7    4.2    2.2   0.50   0.94    0.00    0.00   0.34   0.56   0.80   0.80   9.51  18.45
   15 167    91    90   43.8    0.0   0.00   1.58   55.4   20.7    4.6    2.2   0.50   0.95    0.00    0.00   0.27   0.52   0.77   0.77   9.69  18.45
   15 168    92    91   44.3    0.0   0.00   1.55   56.2   20.7    5.1    2.2   0.50   0.95    0.00    0.00   0.26   0.51   0.76   0.76   9.88  18.45
   15 169    93    92   44.7    0.0   0.00   1.53   56.8   20.7    5.5    2.2   0.51   0.96    0.00    0.00   0.27   0.51   0.76   0.76  10.02  18.45
   15 170    94    93   45.1    0.0   0.00   1.50   57.5   20.7    6.0    2.2   0.51   0.97    0.00    0.00   0.21   0.48   0.73   0.73  10.15  18.45
   15 171    95    94   45.6    0.0   0.00   1.48   58.2   20.7    6.4    2.2   0.51   0.97    0.00    0.00   0.20   0.47   0.71   0.71  10.28  18.45
   15 172    96    95   46.0    0.0   0.00   1.45   58.8   20.7    6.8    2.2   0.51   0.97    0.00    0.00   0.17   0.44   0.69   0.69  10.39  18.45
   15 173    97    96   46.3    0.0   0.00   1.42   59.3   20.7    7.1    2.2   0.50   0.97    0.00    0.00   0.12   0.41   0.66   0.66  10.46  18.45
   15 174    98    97   46.6    0.0   0.00   1.38   59.8   20.7    7.5    2.2   0.49   0.97    0.00    0.00   0.10   0.40   0.64   0.64  10.53  18.45
   15 175    99    98   47.0    0.0   0.00   1.34   60.4   20.7    7.9    2.2   0.47   0.97    0.00    0.00   0.09   0.39   0.63   0.63  10.60  18.45
   15 176   100    99   47.4    0.0   0.00   1.31   60.9   20.7    8.2    2.2   0.46   0.96    0.00    0.00   0.03   0.35   0.58   0.58  10.66  18.45
   15 177   101   100   47.7    0.0   0.00   1.27   61.4   20.7    8.5    2.2   0.44   0.96    0.00    0.00   0.00   0.28   0.49   0.49  10.71  18.45
   15 178   102   101   48.0    0.0   0.00   1.24   61.8   20.7    8.8    2.2   0.43   0.96    0.00    0.00   0.00   0.18   0.32   0.32  10.74  18.45
   15 179   103   102   48.3    0.0   0.00   1.21   62.3   20.7    9.1    2.2   0.42   0.96    0.00    0.00   0.00   0.00   0.00   0.00  10.78  18.45
   15 180   104   103   48.5    0.0   0.00   1.17   62.7   20.7    9.4    2.2   0.41   0.96    0.00    0.00   0.00   0.00   0.00   0.00  10.81  18.45
   15 181   105   104   48.8    0.0   0.00   1.14   63.1   20.7    9.7    2.2   0.40   0.96    0.00    0.00   0.00   0.00   0.00   0.00  10.84  18.45
   15 182   106   105   49.0    0.0   0.00   1.11   63.4   20.7    9.9    2.2   0.38   0.96    0.00    0.00   0.00   0.00   0.00   0.00  10.86  18.45
   15 183   107   106   49.3    0.0   0.00   1.08   63.8   20.7   10.1    2.2   0.37   0.96    0.00    0.00   0.00   0.00   0.00   0.00  10.89  18.45
   15 184   108   107   49.5    0.0   0.00   1.06   64.1   20.7   10.3    2.2   0.37   0.96    0.00    0.00   0.00   0.00   0.00   0.00  10.92  18.45
   15 185   109   108   49.6    9.7   2.69   0.91   64.4   18.8   10.5    2.0   0.41   0.96    0.00    0.00   0.00   0.00   0.00   0.00  10.97  10.66
   15 186   110   109   49.8   12.4   2.56   0.86   64.7   16.8   10.6    1.8   0.42   0.97    0.00    0.00   0.00   0.00   0.00   0.00  11.02   9.92
   15 187   111   110   49.9   14.6   2.34   0.82   65.0   15.3   10.8    1.6   0.43   0.97    0.00    0.00   0.00   0.00   0.00   0.00  11.07   9.32
   15 188   112   111   50.1   17.2   2.32   0.77   65.3   13.4   10.9    1.4   0.45   0.98    0.00    0.00   0.00   0.00   0.00   0.00  11.14   8.57
   15 189   113   112   50.3   18.9   2.17   0.74   65.8   12.1   11.1    1.3   0.46   1.00    0.00    0.00   0.00   0.00   0.00   0.00  11.31   8.09
   15 190   114   113   50.4   20.4   2.08   0.71   66.2   11.1   11.2    1.2   0.47   1.01    0.00    0.00   0.00   0.00   0.00   0.00  11.41   7.67
   15 191   115   114   50.5   22.0   2.03   0.67   66.5    9.9   11.4    1.1   0.47   1.02    0.00    0.00   0.00   0.00   0.00   0.00  11.50   7.20
   15 192   116   115   50.6   24.0   2.02   0.63   66.8    8.6   11.5    0.9   0.48   1.03    0.00    0.00   0.00   0.00   0.00   0.00  11.57   6.61
   15 193   117   116   50.7   25.5   1.95   0.60   67.0    7.5   11.5    0.8   0.48   1.03    0.00    0.00   0.00   0.03   0.06   0.06  11.62   6.15
   15 194   118   117   50.8   26.2   1.92   0.59   67.3    7.1   11.6    0.7   0.49   1.05    0.00    0.00   0.30   0.53   0.78   0.78  11.67   5.92
   15 195   119   118   50.8   26.8   1.89   0.57   67.5    6.6   11.7    0.7   0.49   1.06    0.00    0.00   0.28   0.52   0.77   0.77  11.73   5.72
   15 196   120   119   50.9   27.3   1.87   0.56   67.7    6.3   11.7    0.7   0.49   1.07    0.00    0.00   0.23   0.49   0.74   0.74  11.77   5.53
   15 197   121   120   50.9   27.8   1.86   0.54   67.9    6.0   11.8    0.6   0.49   1.07    0.00    0.00   0.24   0.50   0.75   0.75  11.81   5.36
   15 198   122   121   51.0   28.2   1.84   0.53   68.1    5.7   11.8    0.6   0.48   1.08    0.00    0.00   0.08   0.38   0.62   0.62  11.85   5.19
   15 199   123   122   51.0   28.6   1.83   0.52   68.3    5.5   11.8    0.6   0.48   1.09    0.00    0.00   0.00   0.28   0.49   0.49  11.88   5.02
   15 200   124   123   51.0   29.1   1.82   0.51   68.4    5.3   11.9    0.6   0.48   1.10    0.00    0.00   0.00   0.11   0.21   0.21  11.91   4.85
   15 201   125   124   51.0   29.4   1.80   0.50   68.6    5.0   11.9    0.5   0.48   1.11    0.00    0.00   0.00   0.00   0.00   0.00  11.94   4.68
   15 202   126   125   51.1   29.8   1.80   0.49   68.7    4.8   11.9    0.5   0.47   1.12    0.00    0.00   0.00   0.00   0.00   0.00  11.98   4.53
   15 203   127   126   51.1   30.2   1.79   0.48   68.9    4.7   11.9    0.5   0.47   1.13    0.00    0.00   0.00   0.00   0.00   0.00  12.01   4.38
   15 204   128   127   51.1   30.6   1.77   0.47   69.0    4.5   11.7    0.5   0.46   1.14    0.00    0.00   0.00   0.00   0.00   0.00  12.04   4.25
   15 205   129   128   51.1   31.0   1.76   0.46   69.1    4.4   11.5    0.5   0.45   1.14    0.00    0.00   0.00   0.00   0.00   0.00  12.07   4.12
   15 206   130   129   51.1   31.5   1.75   0.45   69.3    4.3   11.3    0.5   0.44   1.15    0.00    0.00   0.00   0.00   0.00   0.00  12.09   4.01
   15 207   131   130   51.1   32.0   1.74   0.43   69.4    4.1   11.1    0.4   0.43   1.16    0.00    0.00   0.00   0.00   0.00   0.00  12.11   3.90
   15 208   132   131   51.1   32.4   1.73   0.42   69.6    4.0   10.9    0.4   0.42   1.17    0.00    0.00   0.00   0.00   0.00   0.00  12.14   3.80
   15 209   133   132   51.1   32.8   1.72   0.41   69.7    3.9   10.6    0.4   0.41   1.18    0.00    0.00   0.00   0.00   0.00   0.00  12.18   3.70
   15 210   134   133   51.1   33.3   1.71   0.41   69.9    3.8   10.4    0.4   0.41   1.19    0.00    0.00   0.00   0.00   0.00   0.00  12.22   3.61
   15 211   135   134   51.1   33.7   1.70   0.40   70.0    3.7   10.2    0.4   0.40   1.20    0.00    0.00   0.00   0.00   0.00   0.00  12.24   3.52
   15 212   136   135   51.1   34.1   1.70   0.39   70.2    3.6    9.9    0.4   0.39   1.21    0.00    0.00   0.00   0.00   0.00   0.00  12.25   3.44
   15 213   137   136   51.1   34.6   1.69   0.38   70.3    3.6    9.7    0.4   0.38   1.22    0.00    0.00   0.00   0.00   0.00   0.00  12.25   3.35
   15 214   138   137   51.1   35.0   1.68   0.37   70.4    3.5    9.4    0.4   0.37   1.23    0.00    0.00   0.00   0.00   0.00   0.00  12.24   3.26
   15 215   139   138   51.1   35.6   1.67   0.36   70.5    3.4    9.1    0.4   0.36   1.24    0.00    0.00   0.00   0.00   0.00   0.00  12.23   3.16
   15 216   140   139   51.1   36.1   1.66   0.35   70.6    3.2    8.7    0.3   0.35   1.25    0.00    0.00   0.00   0.00   0.00   0.00  12.22   3.06
   15 217   141   140   51.2   36.7   1.65   0.34   70.7    3.1    8.4    0.3   0.34   1.26    0.00    0.00   0.00   0.03   0.06   0.06  12.20   2.96
   15 218   142   141   51.2   37.3   1.64   0.33   70.8    3.0    8.0    0.3   0.33   1.26    0.00    0.00   0.00   0.07   0.13   0.13  12.18   2.85
   15 219   143   142   51.2   37.9   1.63   0.32   70.9    2.9    7.6    0.3   0.32   1.27    0.00    0.00   0.00   0.10   0.20   0.20  12.14   2.74
   15 220   144   143   51.2   37.9   1.63   0.32   70.9    2.9    7.6    0.3   0.32   1.28    0.00    0.00   0.00   0.14   0.26   0.26  12.13   2.75
   15 221   145   144   51.2   37.9   1.63   0.32   71.0    2.9    7.6    0.3   0.32   1.30    0.00    0.00   0.00   0.00   0.00   0.00  12.12   2.75
   15 222   146   145   51.2   37.9   1.63   0.32   71.0    2.9    7.6    0.3   0.32   1.31    0.00    0.00   0.00   0.00   0.00   0.00  12.11   2.75
   15 223   147   146   51.2   37.9   1.63   0.32   71.0    2.9    7.6    0.3   0.32   1.31    0.00    0.00   0.00   0.00   0.00   0.00  11.99   2.75
   15 224   148   147   51.2   37.9   1.63   0.32   71.0    2.9    7.6    0.3   0.32   1.31    0.00    0.00   0.00   0.00   0.00   0.00  11.99   2.75
