*GROWTH ASPECTS OUTPUT FILE

*DSSAT Cropping System Model Ver. 4.8.5.000 -release  OCT 27, 2025 22:35:44

*RUN   1        : 1                         WHAPS048 TUDU1501    1
 MODEL          : WHAPS048 - Wheat
 EXPERIMENT     : TUDU1501 WH
 DATA PATH      :
 TREATMENT  1   : 1                         WHAPS048
  
!                                                                                                                                                                                                                                             Root Dens. (cm/cm3) by soil depth (cm):
!                                                                                                                                                                                                                                             0-5    5-15   15-30   30-45   45-60   60-80  80-100 100-150 150-200
@YEAR DOY   DAS   DAP    DCCD  GSTD   LAID   LWAD   SWAD   GWAD   RWAD   VWAD   CWAD   G#AD   G#AD2  GWGD   HIAD   SHAD   WSPD   WSGD   SLFT   NSTD   EWSD  PST1A  PST2A   KSTD   LN%D   TPSM   HIPD   PWDD   PWTD     SLAD   CHTD   CWID   RDPD    RL1D    RL2D    RL3D    RL4D    RL5D    RL6D    RL7D    RL8D    RL9D   CDAD   LDAD   SDAD   SNW0C   SNW1C    DTTD   SUMDTT
   15 077     1     0   0.000     8  0.000      0      0      0      0      0      0      0      0    0.0  0.000      0   0.00   0.00   0.00   0.00   0.00   0.00   0.00   1.00   0.00    0.0   0.00      0      0      0.0   0.00   0.00 0.0250   0.000   0.000   0.000   0.000   0.000   0.000   0.000   0.000   0.000      0      0      0       0       0   7.000    0.000
   15 078     2     1   0.000     8  0.000      0      0      0      0      0      0      0      0    0.0  0.000      0   0.00   0.00   0.00   0.00   0.00   0.00   0.00   1.00   0.00    0.0   0.00      0      0      0.0   0.00   0.00 0.0250   0.000   0.000   0.000   0.000   0.000   0.000   0.000   0.000   0.000      0      0      0       0       0   7.097    7.097
   15 079     3     2   1.022     9  0.000      0      0      0      0      0      0      0      0    0.0  0.000      0   0.00   0.00   0.00   0.00   0.00   0.00   0.00   1.00   0.00    0.0   0.00      0      0      0.0   0.00   0.00 0.0250   0.000   0.000   0.000   0.000   0.000   0.000   0.000   0.000   0.000      0      0      0       0       0   6.695    6.695
   15 080     4     3   2.060     9  0.000      0      0      0      0      0      0      0      0    0.0  0.000      0   0.00   0.00   0.00   0.00   0.00   0.00   0.00   1.00   0.00    0.0   0.00      0      0      0.0   0.00   0.00 0.0317   0.000   0.000   0.000   0.000   0.000   0.000   0.000   0.000   0.000      0      0      0       0       0   6.798   13.493
   15 081     5     4   2.594     9  0.000      0      0      0      0      0      0      0      0    0.0  0.000      0   0.00   0.00   0.00   0.00   0.00   0.00   0.00   1.00   0.00    0.0   0.00      0      0      0.0   0.00   0.00 0.0385   0.000   0.000   0.000   0.000   0.000   0.000   0.000   0.000   0.000      0      0      0       0       0   3.500   16.993
   15 082     6     5   3.052     9  0.000      0      0      0      0      0      0      0      0    0.0  0.000      0   0.00   0.00   0.00   0.00   0.00   0.00   0.00   1.00   0.00    0.0   0.00      0      0      0.0   0.00   0.00 0.0420   0.000   0.000   0.000   0.000   0.000   0.000   0.000   0.000   0.000      0      0      0       0       0   3.000   19.993
   15 083     7     6   4.227     9  0.000      0      0      0      0      0      0      0      0    0.0  0.000      0   0.00   0.00   0.00   0.00   0.00   0.00   0.00   1.00   0.00    0.0   0.00      0      0      0.0   0.00   0.00 0.0450   0.000   0.000   0.000   0.000   0.000   0.000   0.000   0.000   0.000      0      0      0       0       0   7.695   27.688
   15 084     8     7   5.525     9  0.000      0      0      0      0      0      0      0      0    0.0  0.000      0   0.00   0.00   0.00   0.00   0.00   0.00   0.00   1.00   0.00    0.0   0.00      0      0      0.0   0.00   0.00 0.0500   0.000   0.000   0.000   0.000   0.000   0.000   0.000   0.000   0.000      0      0      0       0       0   8.500   36.188
   15 085     9     8   6.365     9  0.000      0      0      0      0      0      0      0      0    0.0  0.000      0   0.00   0.00   0.00   0.00   0.00   0.00   0.00   1.00   0.00    0.0   0.00      0      0      0.0   0.00   0.00 0.0500   0.000   0.000   0.000   0.000   0.000   0.000   0.000   0.000   0.000      0      0      0       0       0   5.500   41.688
   15 086    10     9   7.281     9  0.000      0      0      0      0      0      0      0      0    0.0  0.000      0   0.00   0.00   0.00   0.00   0.00   0.00   0.00   1.00   0.00    0.0   0.00      0      0      0.0   0.00   0.00 0.0500   0.000   0.000   0.000   0.000   0.000   0.000   0.000   0.000   0.000      0      0      0       0       0   6.000   47.688
   15 087    11    10   8.197     9  0.000      0      0      0      0      0      0      0      0    0.0  0.000      0   0.00   0.00   0.00   0.00   0.00   0.00   0.00   1.00   0.00    0.0   0.00      0      0      0.0   0.00   0.00 0.0500   0.000   0.000   0.000   0.000   0.000   0.000   0.000   0.000   0.000      0      0      0       0       0   6.000   53.688
   15 088    12    11   9.571     9  0.000      0      0      0      0      0      0      0      0    0.0  0.000      0   0.00   0.00   0.00   0.00   0.00   0.00   0.00   1.00   0.00    0.0   0.00      0      0      0.0   0.00   0.00 0.0500   0.000   0.000   0.000   0.000   0.000   0.000   0.000   0.000   0.000      0      0      0       0       0   9.000   62.688
   15 089    13    12  10.159     1  0.016     10      0      0     23     11     11      0      0    0.0  0.000      0   0.00   0.00   1.00   0.00   0.00   0.00   0.00   1.00   5.59  375.0   0.00      0      0    298.8   0.00   0.00 0.0612   0.039   0.004   0.000   0.000   0.000   0.000   0.000   0.000   0.000      0      0      0       0       0   6.000    3.188
   15 090    14    13  10.392     1  0.018     12      0      0     23     14     14      0      0    0.0  0.000      1   0.00   0.00   1.00   0.00   0.00   0.00   0.00   1.00   5.06  375.0   0.00      0      1    297.1   0.00   0.00 0.0743   0.039   0.004   0.000   0.000   0.000   0.000   0.000   0.000   0.000      0      0      0       0       0   7.000    7.841
   15 091    15    14  10.493     1  0.020     13      0      0     23     15     15      0      0    0.0  0.000      2   0.00   0.00   1.00   0.00   0.00   0.00   0.00   1.00   6.02  375.0   0.00      0      2    296.4   0.00   0.00 0.0799   0.039   0.004   0.000   0.000   0.000   0.000   0.000   0.000   0.000      0      0      0       0       0   3.000    9.860
   15 092    16    15  10.595     1  0.021     13      0      0     23     16     16      0      0    0.0  0.000      2   0.00   0.00   1.00   0.00   0.00   0.00   0.00   1.00   5.99  375.0   0.00      0      2    295.7   0.00   0.00 0.0855   0.039   0.004   0.000   0.000   0.000   0.000   0.000   0.000   0.000      0      0      0       0       0   3.000   11.904
   15 093    17    16  10.771     1  0.024     15      0      0     24     18     18      0      0    0.0  0.000      3   0.00   0.00   1.00   0.00   0.00   0.00   0.00   1.00   5.59  375.0   0.00      0      3    294.4   0.00   0.00 0.0951   0.038   0.004   0.000   0.000   0.000   0.000   0.000   0.000   0.000      0      0      0       0       0   5.097   15.418
   15 094    18    17  10.876     1  0.025     16      0      0     24     20     20      0      0    0.0  0.000      3   0.00   0.00   1.00   0.00   0.00   0.00   0.00   1.00   5.94  375.0   0.00      0      3    293.7   0.00   0.00 0.1007   0.038   0.004   0.000   0.000   0.000   0.000   0.000   0.000   0.000      0      0      0       0       0   3.000   17.515
   15 095    19    18  10.989     1  0.027     16      0      0     25     21     21      0      0    0.0  0.000      4   0.00   0.00   1.00   0.00   0.00   0.00   0.00   1.00   6.00  375.0   0.00      0      4    292.9   0.00   0.00 0.1066   0.038   0.004   0.000   0.000   0.000   0.000   0.000   0.000   0.000      0      0      0       0       0   3.195   19.772
   15 096    20    19  11.103     1  0.029     17      0      0     25     22     22      0      0    0.0  0.000      5   0.00   0.00   1.00   0.00   0.00   0.00   0.00   1.00   5.99  375.0   0.00      0      5    292.2   0.00   0.00 0.1126   0.037   0.004   0.000   0.000   0.000   0.000   0.000   0.000   0.000      0      0      0       0       0   3.195   22.052
   15 097    21    20  11.254     1  0.032     18      0      0     26     25     25      0      0    0.0  0.000      6   0.00   0.00   1.00   0.00   0.00   0.00   0.00   1.00   5.75  375.0   0.00      0      6    291.2   0.00   0.00 0.1205   0.037   0.004   0.000   0.000   0.000   0.000   0.000   0.000   0.000      0      0      0       0       0   4.195   25.075
   15 098    22    21  11.490     1  0.038     23      0      0     28     31     31      0      0    0.0  0.000      8   0.00   0.00   1.00   0.00   0.00   0.00   0.00   1.00   4.95  375.0   0.00      0      8    289.6   0.00   0.00 0.1326   0.037   0.004   0.000   0.000   0.000   0.000   0.000   0.000   0.000      0      0      0       0       0   6.500   29.805
   15 099    23    22  11.857     1  0.045     34      0      0     30     45     45      0      0    0.0  0.000     10   0.00   0.00   1.00   0.00   0.00   0.00   0.00   1.00   4.17  375.0   0.00      0     10    287.3   0.00   0.00 0.1513   0.037   0.004   0.000   0.000   0.000   0.000   0.000   0.000   0.000      0      0      0       0       0  10.000   37.136
   15 100    24    23  12.263     1  0.053     41      0      0     32     54     54      0      0    0.0  0.000     13   0.00   0.00   1.00   0.50   0.00   0.00   0.00   1.00   5.06  375.0   0.00      0     13    284.8   0.00   0.00 0.1683   0.036   0.004   0.000   0.000   0.000   0.000   0.000   0.000   0.000      0      0      0       0       0  11.000   45.251
   15 101    25    24  12.689     1  0.061     52      0      0     34     68     68      0      0    0.0  0.000     16   0.00   0.00   1.00   0.28   0.00   0.00   0.00   1.00   4.71  375.0   0.00      0     16    282.3   0.00   0.00 0.1860   0.036   0.004   0.000   0.000   0.000   0.000   0.000   0.000   0.000      0      0      0       0       0  11.500   53.784
   15 102    26    25  13.118     1  0.071     63      0      0     36     83     83      0      0    0.0  0.000     19   0.00   0.00   1.00   0.34   0.00   0.00   0.00   1.00   4.89  375.0   0.00      0     19    279.9   0.00   0.00 0.2037   0.036   0.005   0.000   0.000   0.000   0.000   0.000   0.000   0.000      0      0      0       0       0  11.500   62.366
   15 103    27    26  13.550     1  0.082     76      0      0     40    100    100      0      0    0.0  0.000     24   0.00   0.00   1.00   0.29   0.00   0.00   0.00   1.00   4.89  375.0   0.00      0     24    277.6   0.00   0.00 0.2214   0.036   0.005   0.000   0.000   0.000   0.000   0.000   0.000   0.000      0      0      0       0       0  11.500   70.997
   15 104    28    27  13.984     1  0.098     83      0      0     44    113    113      0      0    0.0  0.000     29   0.00   0.00   1.00   0.28   0.00   0.00   0.00   1.00   5.19  375.0   0.00      0     29    275.4   0.00   0.00 0.2391   0.036   0.005   0.000   0.000   0.000   0.000   0.000   0.000   0.000      0      0      0       0       0  11.500   79.678
   15 105    29    28  14.514     1  0.119     91      0      0     50    128    128      0      0    0.0  0.000     37   0.00   0.00   1.00   0.23   0.00   0.00   0.00   1.00   5.07  375.0   0.00      0     37    272.8   0.00   0.00 0.2607   0.036   0.005   0.000   0.000   0.000   0.000   0.000   0.000   0.000      0      0      0       0       0  14.000   90.282
   15 106    30    29  15.084     1  0.138     97      0      0     56    142    142      0      0    0.0  0.000     44   0.00   0.00   1.00   0.26   0.00   0.00   0.00   1.00   4.97  375.0   0.00      0     44    270.1   0.00   0.00 0.2838   0.035   0.005   0.001   0.000   0.000   0.000   0.000   0.000   0.000      0      0      0       0       0  15.000  101.674
   15 107    31    30  15.485     1  0.151    103      0      0     60    152    152      0      0    0.0  0.000     49   0.00   0.00   1.00   0.29   0.00   0.00   0.00   1.00   5.69  375.0   0.00      0     49    268.3   0.00   0.00 0.2999   0.035   0.005   0.001   0.000   0.000   0.000   0.000   0.000   0.000      0      0      0       0       0  10.500  109.700
   15 108    32    31  15.678     1  0.167    109      0      0     68    164    164      0      0    0.0  0.000     55   0.00   0.00   1.00   0.00   0.00   0.00   0.00   1.00   5.77  375.0   0.00      0     55    267.5   0.00   0.00 0.3054   0.035   0.005   0.001   0.000   0.000   0.000   0.000   0.000   0.000      0      0      0       0       0   5.000  113.560
   15 109    33    32  15.912     1  0.190    117      0      0     81    181    181      0      0    0.0  0.000     63   0.00   0.00   1.00   0.00   0.00   0.00   0.00   1.00   5.73  375.0   0.00      0     63    266.5   0.00   0.00 0.3120   0.035   0.006   0.001   0.000   0.000   0.000   0.000   0.000   0.000      0      0      0       0       0   6.000  118.236
   15 110    34    33  16.226     1  0.226    131      0      0     91    208    208      0      0    0.0  0.000     77   0.00   0.00   1.00   0.00   0.00   0.00   0.00   1.00   5.65  375.0   0.00      0     77    265.2   0.00   0.00 0.3208   0.036   0.006   0.001   0.000   0.000   0.000   0.000   0.000   0.000      0      0      0       0       0   8.000  124.523
   15 111    35    34  16.622     1  0.272    148      0      0    105    243    243      0      0    0.0  0.000     94   0.00   0.00   1.00   0.00   0.00   0.00   0.00   1.00   5.56  375.0   0.00      0     94    263.7   0.00   0.00 0.3318   0.036   0.007   0.002   0.000   0.000   0.000   0.000   0.000   0.000      0      0      0       0       0  10.000  132.435
   15 112    36    35  17.040     1  0.325    168      0      0    122    283    283      0      0    0.0  0.000    115   0.00   0.00   1.00   0.00   0.00   0.00   0.00   1.00   5.51  375.0   0.00      0    115    262.1   0.00   0.00 0.3434   0.036   0.007   0.002   0.000   0.000   0.000   0.000   0.000   0.000      0      0      0       0       0  10.500  140.794
   15 113    37    36  17.281     1  0.350    178      0      0    140    302    302      0      0    0.0  0.000    124   0.00   0.00   1.00   0.00   0.00   0.00   0.00   1.00   5.53  375.0   0.00      0    124    261.2   0.00   0.00 0.3500   0.037   0.007   0.002   0.000   0.000   0.000   0.000   0.000   0.000      0      0      0       0       0   6.000  145.614
   15 114    38    37  17.645     1  0.402    198      0      0    169    343    343      0      0    0.0  0.000    144   0.00   0.00   1.00   0.00   0.00   0.00   0.00   1.00   5.44  375.0   0.00      0    144    259.9   0.00   0.00 0.3599   0.038   0.008   0.003   0.000   0.000   0.000   0.000   0.000   0.000      0      0      0       0       0   9.000  152.898
   15 115    39    38  18.093     1  0.450    217      0      0    183    380    380      0      0    0.0  0.000    163   0.00   0.00   1.00   0.00   0.00   0.00   0.00   1.00   5.36  375.0   0.00      0    163    258.4   0.00   0.00 0.3720   0.039   0.009   0.003   0.001   0.000   0.000   0.000   0.000   0.000      0      0      0       0       0  11.000  161.851
   15 116    40    39  18.704     1  0.523    245      0      0    206    436    436      0      0    0.0  0.000    191   0.00   0.00   1.00   0.00   0.00   0.00   0.00   1.00   5.24  375.0   0.00      0    191    256.4   0.00   0.00 0.3885   0.040   0.009   0.004   0.001   0.000   0.000   0.000   0.000   0.000      0      0      0       0       0  15.000  174.090
   15 117    41    40  19.277     1  0.609    279      0      0    233    504    504      0      0    0.0  0.000    225   0.00   0.00   1.00   0.00   0.00   0.00   0.00   1.00   5.21  375.0   0.00      0    225    254.7   0.00   0.00 0.4039   0.041   0.010   0.004   0.001   0.000   0.000   0.000   0.000   0.000      0      0      0       0       0  14.000  185.550
   15 118    42    41  19.608     1  0.654    297      0      0    246    540    540      0      0    0.0  0.000    243   0.00   0.00   1.00   0.00   0.00   0.00   0.00   1.00   5.22  375.0   0.00      0    243    253.7   0.00   0.00 0.4127   0.042   0.011   0.005   0.001   0.000   0.000   0.000   0.000   0.000      0      0      0       0       0   8.000  192.151
   15 119    43    42  19.878     1  0.689    310      0      0    270    567    567      0      0    0.0  0.000    257   0.00   0.00   1.00   0.00   0.00   0.00   0.00   1.00   5.18  375.0   0.00      0    257    252.9   0.00   0.00 0.4198   0.042   0.011   0.005   0.001   0.000   0.000   0.000   0.000   0.000      0      0      0       0       0   6.500  197.561
   15 120    44    43  20.297     1  0.762    339      0      0    305    625    625      0      0    0.0  0.000    286   0.00   0.00   1.00   0.00   0.00   0.00   0.00   1.00   5.13  375.0   0.00      0    286    251.8   0.00   0.00 0.4308   0.043   0.012   0.006   0.002   0.000   0.000   0.000   0.000   0.000      0      0      0       0       0  10.000  205.936
   15 121    45    44  20.634     1  0.811    359      0      0    318    664    664      0      0    0.0  0.000    305   0.00   0.00   1.00   0.00   0.00   0.00   0.00   1.00   5.13  375.0   0.00      0    305    250.9   0.00   0.00 0.4396   0.044   0.013   0.006   0.002   0.000   0.000   0.000   0.000   0.000      0      0      0       0       0   8.000  212.689
   15 122    46    45  21.059     1  0.887    389      0      0    342    725    725      0      0    0.0  0.000    336   0.00   0.00   1.00   0.00   0.00   0.00   0.00   1.00   5.06  375.0   0.00      0    336    249.8   0.00   0.00 0.4506   0.044   0.013   0.007   0.002   0.000   0.000   0.000   0.000   0.000      0      0      0       0       0  10.000  221.184
   15 123    47    46  21.613     1  0.960    419      0      0    364    784    784      0      0    0.0  0.000    365   0.00   0.00   1.00   0.00   0.00   0.00   0.00   1.00   4.90  375.0   0.00      0    365    248.5   0.00   0.00 0.4649   0.044   0.014   0.008   0.003   0.000   0.000   0.000   0.000   0.000      0      0      0       0       0  13.000  232.269
   15 124    48    47  22.339     1  1.075    465      0      0    400    877    877      0      0    0.0  0.000    412   0.00   0.00   1.00   0.00   0.00   0.00   0.00   1.00   4.69  375.0   0.00      0    412    246.8   0.00   0.00 0.4836   0.043   0.014   0.008   0.003   0.000   0.000   0.000   0.000   0.000      0      0      0       0       0  17.000  246.776
   15 125    49    48  23.128     1  1.174    506      0      0    430    958    958      0      0    0.0  0.000    452   0.00   0.00   1.00   0.05   0.00   0.00   0.00   1.00   4.54  375.0   0.00      0    452    245.2   0.00   0.00 0.5040   0.043   0.015   0.009   0.004   0.000   0.000   0.000   0.000   0.000      0      0      0       0       0  18.500  262.564
   15 126    50    49  23.600     1  1.260    541      0      0    486   1028   1028      0      0    0.0  0.000    487   0.00   0.00   1.00   0.09   0.00   0.00   0.00   1.00   4.34  375.0   0.00      0    487    244.2   0.00   0.00 0.5161   0.043   0.015   0.010   0.005   0.001   0.000   0.000   0.000   0.000      0      0      0       0       0  11.000  272.002
   15 127    51    50  24.160     1  1.356    580      0      0    560   1108   1108      0      0    0.0  0.000    527   0.00   0.00   1.00   0.15   0.00   0.00   0.00   1.00   4.19  375.0   0.00      0    527    243.2   0.00   0.00 0.5304   0.044   0.015   0.011   0.006   0.002   0.000   0.000   0.000   0.000      0      0      0       0       0  13.000  283.199
   15 128    52    51  24.807     1  1.465    625      0      0    644   1197   1197      0      0    0.0  0.000    572   0.00   0.00   1.00   0.20   0.00   0.00   0.00   1.00   4.05  375.0   0.00      0    572    242.1   0.00   0.00 0.5469   0.045   0.016   0.012   0.008   0.003   0.000   0.000   0.000   0.000      0      0      0       0       0  15.000  296.148
   15 129    53    52  25.392     1  1.560    665      0      0    711   1276   1276      0      0    0.0  0.000    611   0.00   0.00   1.00   0.23   0.00   0.00   0.00   1.00   3.97  375.0   0.00      0    611    241.1   0.00   0.00 0.5617   0.046   0.017   0.013   0.010   0.005   0.000   0.000   0.000   0.000      0      0      0       0       0  13.500  307.842
   15 130    54    53  25.957     1  1.651    703      0      0    780   1352   1352      0      0    0.0  0.000    649   0.00   0.00   1.00   0.25   0.00   0.00   0.00   1.00   3.90  375.0   0.00      0    649    240.2   0.00   0.00 0.5760   0.047   0.018   0.014   0.011   0.007   0.000   0.000   0.000   0.000      0      0      0       0       0  13.000  319.146
   15 131    55    54  26.525     1  1.743    741      0      0    848   1429   1429      0      0    0.0  0.000    687   0.00   0.00   1.00   0.26   0.00   0.00   0.00   1.00   3.82  375.0   0.00      0    687    239.4   0.00   0.00 0.5903   0.048   0.020   0.015   0.011   0.009   0.000   0.000   0.000   0.000      0      0      0       0       0  13.000  330.492
   15 132    56    55  27.287     1  1.867    793      0      0    944   1533   1533      0      0    0.0  0.000    739   0.00   0.00   1.00   0.27   0.00   0.00   0.00   1.00   3.66  375.0   0.00      0    739    238.3   0.00   0.00 0.6096   0.049   0.021   0.016   0.012   0.010   0.000   0.000   0.000   0.000      0      0      0       0       0  17.474  345.750
   15 133    57    56  28.052     1  1.986    843      0      0   1035   1633   1633      0      0    0.0  0.000    790   0.00   0.00   1.00   0.32   0.00   0.00   0.00   1.00   3.51  375.0   0.00      0    790    237.3   0.00   0.00 0.6242   0.051   0.023   0.017   0.013   0.012   0.000   0.000   0.000   0.000      0      0      0       0       0  17.500  361.036
   15 134    58    57  28.687     1  2.080    883      0      0   1104   1713   1713      0      0    0.0  0.000    829   0.00   0.00   1.00   0.37   0.00   0.00   0.00   1.00   3.42  375.0   0.00      0    829    236.6   0.00   0.00 0.6363   0.053   0.024   0.019   0.014   0.013   0.001   0.000   0.000   0.000      0      0      0       0       0  14.500  373.734
   15 135    59    58  29.171     1  2.149    912      0      0   1151   1771   1771      0      0    0.0  0.000    858   0.00   0.00   1.00   0.40   0.00   0.00   0.00   1.00   3.36  375.0   0.00      0    858    236.0   0.00   0.00 0.6455   0.054   0.026   0.020   0.015   0.014   0.002   0.000   0.000   0.000      0      0      0       0       0  11.000  383.419
   15 136    60    59  29.702     1  2.224    944      0      0   1203   1834   1834      0      0    0.0  0.000    890   0.00   0.00   1.00   0.41   0.00   0.00   0.00   1.00   3.29  375.0   0.00      0    890    235.5   0.00   0.00 0.6555   0.055   0.027   0.021   0.016   0.014   0.002   0.000   0.000   0.000      0      0      0       0       0  12.000  394.031
   15 137    61    60  30.237     2  2.357   1000     22      0   1234   1969   1969      0      0    0.0  0.000    947   0.00   0.00   1.00   0.42   0.00   0.00   0.00   1.00   3.15  489.9   0.00      0    947    235.5   0.00   0.00 0.6668   0.056   0.028   0.021   0.016   0.015   0.002   0.000   0.000   0.000      0      0      0       0       0  13.500    6.010
   15 138    62    61  30.828     2  2.514   1067     51      0   1276   2132   2132      0      0    0.0  0.000   1014   0.00   0.00   1.00   0.48   0.00   0.00   0.00   1.00   2.98  524.2   0.00      0   1014    235.5   0.00   0.00 0.6794   0.056   0.028   0.022   0.016   0.015   0.003   0.000   0.000   0.000      0      0      0       0       0  15.000   21.010
   15 139    63    62  31.359     2  2.586   1098     66      0   1289   2208   2208      0      0    0.0  0.000   1044   0.00   0.00   1.00   0.56   0.00   0.00   0.00   1.00   2.93  533.3   0.00      0   1044    235.5   0.00   0.00 0.6906   0.057   0.029   0.022   0.017   0.016   0.003   0.000   0.000   0.000      0      0      0       0       0  13.500   34.510
   15 140    64    63  31.675     2  2.634   1118     76      0   1294   2260   2260      0      0    0.0  0.000   1065   0.00   0.00   1.00   0.58   0.00   0.00   0.00   1.00   2.91  535.6   0.00      0   1065    235.5   0.00   0.00 0.6973   0.057   0.029   0.023   0.017   0.016   0.004   0.000   0.000   0.000      0      0      0       0       0   8.000   42.510
   15 141    65    64  32.049     2  2.701   1147     93      0   1306   2332   2332      0      0    0.0  0.000   1093   0.00   0.00   1.00   0.58   0.00   0.00   0.00   1.00   2.86  535.9   0.00      0   1093    235.5   0.00   0.00 0.7053   0.056   0.029   0.023   0.017   0.016   0.004   0.000   0.000   0.000      0      0      0       0       0   9.500   52.010
   15 142    66    65  32.423     2  2.800   1189    118      0   1332   2442   2442      0      0    0.0  0.000   1135   0.00   0.00   1.00   0.59   0.00   0.00   0.00   1.00   2.79  535.8   0.00      0   1135    235.5   0.00   0.00 0.7132   0.056   0.029   0.023   0.017   0.016   0.004   0.000   0.000   0.000      0      0      0       0       0   9.500   61.510
   15 143    67    66  32.856     2  2.862   1220    139      0   1348   2524   2524      0      0    0.0  0.000   1166   0.00   0.00   1.00   0.63   0.00   0.00   0.00   1.00   2.74  533.7   0.00      0   1166    235.5   0.00   0.00 0.7224   0.057   0.030   0.023   0.017   0.016   0.004   0.000   0.000   0.000      0      0      0       0       0  11.000   72.510
   15 144    68    67  33.309     2  2.911   1245    157      0   1359   2593   2593      0      0    0.0  0.000   1191   0.00   0.00   1.00   0.64   0.00   0.00   0.00   1.00   2.70  529.5   0.00      0   1191    235.5   0.00   0.00 0.7320   0.057   0.030   0.023   0.018   0.016   0.004   0.000   0.000   0.000      0      0      0       0       0  11.500   84.010
   15 145    69    68  33.861     2  2.970   1274    180      0   1375   2675   2675      0      0    0.0  0.000   1221   0.00   0.00   1.00   0.65   0.00   0.00   0.00   1.00   2.65  522.2   0.00      0   1221    235.5   0.00   0.00 0.7437   0.057   0.030   0.023   0.018   0.016   0.004   0.000   0.000   0.000      0      0      0       0       0  14.000   98.010
   15 146    70    69  34.314     2  3.017   1298    200      0   1386   2743   2743      0      0    0.0  0.000   1244   0.00   0.00   1.00   0.67   0.00   0.00   0.00   1.00   2.62  515.3   0.00      0   1244    235.5   0.00   0.00 0.7533   0.057   0.030   0.024   0.018   0.017   0.005   0.000   0.000   0.000      0      0      0       0       0  11.500  109.510
   15 147    71    70  34.669     2  3.070   1323    223      0   1399   2816   2816      0      0    0.0  0.000   1270   0.00   0.00   1.00   0.68   0.00   0.00   0.00   1.00   2.58  509.9   0.00      0   1270    235.5   0.00   0.00 0.7609   0.057   0.031   0.024   0.018   0.017   0.005   0.000   0.000   0.000      0      0      0       0       0   9.000  118.510
   15 148    72    71  35.122     2  3.149   1359    258      0   1424   2922   2922      0      0    0.0  0.000   1305   0.00   0.00   1.00   0.69   0.00   0.00   0.00   1.00   2.52  503.0   0.00      0   1305    235.5   0.00   0.00 0.7705   0.057   0.031   0.024   0.018   0.017   0.005   0.000   0.000   0.000      0      0      0       0       0  11.500  130.010
   15 149    73    72  35.713     2  3.208   1386    287      0   1441   3006   3006      0      0    0.0  0.000   1333   0.00   0.00   1.00   0.71   0.00   0.00   0.00   1.00   2.48  493.2   0.00      0   1333    235.5   0.00   0.00 0.7830   0.057   0.031   0.024   0.018   0.017   0.005   0.000   0.000   0.000      0      0      0       0       0  15.000  145.010
   15 150    74    73  36.284     2  3.256   1409    313      0   1453   3077   3077      0      0    0.0  0.000   1355   0.00   0.00   1.00   0.72   0.00   0.00   0.00   1.00   2.45  482.9   0.00      0   1355    235.5   0.00   0.00 0.7951   0.057   0.031   0.025   0.018   0.017   0.005   0.000   0.000   0.000      0      0      0       0       0  14.500  159.510
   15 151    75    74  36.875     2  3.311   1434    346      0   1470   3161   3161      0      0    0.0  0.000   1381   0.00   0.00   1.00   0.73   0.00   0.00   0.00   1.00   2.42  471.9   0.00      0   1381    235.5   0.00   0.00 0.8077   0.057   0.032   0.025   0.019   0.017   0.006   0.000   0.000   0.000      0      0      0       0       0  15.000  174.510
   15 152    76    75  37.603     2  3.272   1457    377      0   1484   3237   3237      0      0    0.0  0.000   1403   0.00   0.00   1.00   0.73   0.00   0.00   0.00   1.00   2.48  457.2   0.00      0   1403    235.5   0.00   0.00 0.8232   0.060   0.032   0.025   0.019   0.017   0.006   0.000   0.000   0.000      0      0      0       0       0  18.500  193.010
   15 153    77    76  38.352     2  3.256   1488    426      0   1509   3348   3348      0      0    0.0  0.000   1434   0.00   0.00   1.00   0.63   0.00   0.00   0.00   1.00   2.52  441.0   0.00      0   1434    235.5   0.00   0.00 0.8390   0.063   0.032   0.025   0.019   0.017   0.006   0.000   0.000   0.000      0      0      0       0       0  19.000  212.010
   15 154    78    77  39.135     2  3.280   1527    494      0   1543   3493   3493      0      0    0.0  0.000   1473   0.00   0.00   1.00   0.55   0.00   0.00   0.00   1.00   2.54  423.0   0.00      0   1473    235.5   0.00   0.00 0.8556   0.066   0.032   0.025   0.019   0.017   0.006   0.000   0.000   0.000      0      0      0       0       0  19.875  231.885
   15 155    79    78  39.883     2  3.339   1573    583      0   1588   3674   3674      0      0    0.0  0.000   1519   0.00   0.00   1.00   0.48   0.00   0.00   0.00   1.00   2.52  405.4   0.00      0   1519    235.5   0.00   0.00 0.8715   0.071   0.032   0.025   0.019   0.018   0.006   0.000   0.000   0.000      0      0      0       0       0  19.000  250.885
   15 156    80    79  40.724     2  3.406   1616    676      0   1630   3854   3854      0      0    0.0  0.000   1562   0.00   0.00   1.00   0.46   0.00   0.00   0.00   1.00   2.48  385.0   0.00      0   1562    235.5   0.00   0.00 0.8894   0.076   0.032   0.025   0.019   0.018   0.006   0.001   0.000   0.000      0      0      0       0       0  21.346  272.231
   15 157    81    80  41.553     2  3.463   1651    764      0   1666   4013   4013      0      0    0.0  0.000   1598   0.00   0.00   1.00   0.46   0.00   0.00   0.00   1.00   2.48  375.0   0.00      0   1598    235.5   0.00   0.00 0.9070   0.081   0.032   0.025   0.019   0.018   0.006   0.001   0.000   0.000      0      0      0       0       0  21.029  293.261
   15 158    82    81  42.380     2  3.396   1692    876      0   1710   4206   4206      0      0    0.0  0.000   1638   0.00   0.00   1.00   0.39   0.00   0.00   0.00   1.00   2.44  375.0   0.00      0   1638    235.5   0.00   0.00 0.9245   0.085   0.032   0.025   0.019   0.018   0.006   0.001   0.000   0.000      0      0      0       0       0  21.000  314.261
   15 159    83    82  43.019     3  3.256   1692    980      0   1717   4311   4311      0      0    0.0  0.000   1638   0.00   0.00   1.00   0.39   0.00   0.00   0.00   1.00   2.47  375.0   0.00      0   1638    235.5   0.00   0.00 0.9379   0.089   0.033   0.026   0.019   0.018   0.007   0.002   0.000   0.000      0      0      0       0       0  16.000    0.261
   15 160    84    83  43.892     3  3.237   1692   1066      0   1719   4397   4397      0      0    0.0  0.000   1638   0.00   0.00   1.00   0.29   0.00   0.00   0.00   1.00   2.48  375.0   0.00      0   1638    235.5   0.00   0.00 0.9479   0.089   0.033   0.026   0.019   0.018   0.007   0.002   0.000   0.000      0      0      0       0       0  12.000   12.261
   15 161    85    84  44.946     3  3.216   1692   1187      0   1726   4517   4517      0      0    0.0  0.000   1638   0.00   0.00   1.00   0.19   0.00   0.00   0.00   1.00   2.48  375.0   0.00      0   1638    235.5   0.00   0.00 0.9600   0.089   0.033   0.026   0.019   0.018   0.007   0.002   0.000   0.000      0      0      0       0       0  14.500   26.761
   15 162    86    85  46.255     3  3.193   1692   1360      0   1742   4690   4690      0      0    0.0  0.000   1638   0.00   0.00   1.00   0.13   0.00   0.00   0.00   1.00   2.48  375.0   0.00      0   1638    235.5   0.00   0.00 0.9751   0.088   0.033   0.026   0.019   0.018   0.007   0.003   0.000   0.000      0      0      0       0       0  18.000   44.761
   15 163    87    86  47.701     3  3.169   1692   1587      0   1768   4918   4918      0      0    0.0  0.000   1638   0.00   0.00   1.00   0.08   0.00   0.00   0.00   1.00   2.48  375.0   0.00      0   1638    235.5   0.00   0.00 0.9917   0.088   0.033   0.026   0.019   0.018   0.007   0.003   0.000   0.000      0      0      0       0       0  19.875   64.636
   15 164    88    87  49.119     3  3.146   1692   1779      0   1786   5110   5110      0      0    0.0  0.000   1638   0.00   0.00   1.00   0.10   0.00   0.00   0.00   1.00   2.48  375.0   0.00      0   1638    235.5   0.00   0.00 1.0080   0.088   0.033   0.026   0.019   0.018   0.007   0.004   0.000   0.000      0      0      0       0       0  19.500   84.136
   15 165    89    88  50.537     3  3.122   1692   1991      0   1808   5322   5322      0      0    0.0  0.000   1638   0.00   0.00   1.00   0.09   0.00   0.00   0.00   1.00   2.48  375.0   0.00      0   1638    235.5   0.00   0.00 1.0102   0.087   0.034   0.026   0.019   0.018   0.007   0.004   0.000   0.000      0      0      0       0       0  19.500  103.636
   15 166    90    89  51.592     3  3.105   1692   2110      0   1813   5441   5441      0      0    0.0  0.000   1638   0.00   0.00   1.00   0.11   0.00   0.00   0.00   1.00   2.48  375.0   0.00      0   1638    235.5   0.00   0.00 1.0118   0.087   0.034   0.026   0.020   0.019   0.008   0.004   0.000   0.000      0      0      0       0       0  14.500  118.136
   15 167    91    90  52.683     3  3.087   1692   2297      0   1830   5628   5628      0      0    0.0  0.000   1638   0.00   0.00   1.00   0.07   0.00   0.00   0.00   1.00   2.48  375.0   0.00      0   1638    235.5   0.00   0.00 1.0134   0.087   0.034   0.026   0.020   0.019   0.008   0.004   0.000   0.000      0      0      0       0       0  15.000  133.136
   15 168    92    91  53.737     3  3.069   1692   2503      0   1850   5834   5834      0      0    0.0  0.000   1638   0.00   0.00   1.00   0.07   0.00   0.00   0.00   1.00   2.48  375.0   0.00      0   1638    235.5   0.00   0.00 1.0150   0.087   0.034   0.027   0.020   0.019   0.008   0.005   0.000   0.000      0      0      0       0       0  14.500  147.636
   15 169    93    92  54.683     3  3.054   1692   2612      0   1852   5943   5943      0      0    0.0  0.000   1638   0.00   0.00   1.00   0.08   0.00   0.00   0.00   1.00   2.48  375.0   0.00      0   1638    235.5   0.00   0.00 1.0164   0.086   0.034   0.027   0.020   0.019   0.008   0.005   0.000   0.000      0      0      0       0       0  13.000  160.636
   15 170    94    93  55.592     3  3.039   1692   2772      0   1862   6103   6103      0      0    0.0  0.000   1638   0.00   0.00   1.00   0.04   0.00   0.00   0.00   1.00   2.48  375.0   0.00      0   1638    235.5   0.00   0.00 1.0178   0.086   0.034   0.027   0.020   0.019   0.008   0.005   0.000   0.000      0      0      0       0       0  12.500  173.136
   15 171    95    94  56.464     3  3.024   1692   2924      0   1871   6254   6254      0      0    0.0  0.000   1638   0.00   0.00   1.00   0.03   0.00   0.00   0.00   1.00   2.48  375.0   0.00      0   1638    235.5   0.00   0.00 1.0191   0.086   0.035   0.027   0.020   0.019   0.008   0.005   0.000   0.000      0      0      0       0       0  12.000  185.136
   15 172    96    95  57.410     3  3.008   1692   3080      0   1880   6411   6411      0      0    0.0  0.000   1638   0.00   0.00   1.00   0.01   0.00   0.00   0.00   1.00   2.48  375.0   0.00      0   1638    235.5   0.00   0.00 1.0206   0.085   0.035   0.027   0.020   0.019   0.008   0.005   0.000   0.000      0      0      0       0       0  13.000  198.136
   15 173    97    96  58.537     3  2.990   1692   3240      0   1890   6571   6571      0      0    0.0  0.000   1638   0.00   0.00   1.00   0.00   0.00   0.00   0.00   1.00   2.48  375.0   0.00      0   1638    235.5   0.00   0.00 1.0223   0.085   0.035   0.027   0.020   0.019   0.008   0.006   0.000   0.000      0      0      0       0       0  15.500  213.636
   15 174    98    97  59.460     4  2.990   1692   3427      0   1891   6757   6757      0      0    0.0  0.000   1638   0.00   0.00   1.00   0.00   0.00   0.00   0.00   1.00   2.48  375.0   0.00      0   1638    235.5   0.00   0.00 1.0236   0.085   0.035   0.027   0.020   0.019   0.009   0.006   0.000   0.000      0      0      0       0       0  12.500    6.136
   15 175    99    98  60.473     4  2.962   1692   3637      0   1896   6967   6967      0      0    0.0  0.000   1638   0.00   0.00   1.00   0.00   0.00   0.00   0.00   1.00   2.48  375.0   0.00      0   1638    235.5   0.00   0.00 1.0251   0.084   0.035   0.027   0.020   0.019   0.009   0.006   0.000   0.000      0      0      0       0       0  13.500   19.636
   15 176   100    99  61.485     4  2.932   1692   3847      0   1900   7178   7178      0      0    0.0  0.000   1638   0.00   0.00   1.00   0.00   0.00   0.00   0.00   1.00   2.48  375.0   0.00      0   1638    235.5   0.00   0.00 1.0266   0.084   0.035   0.027   0.020   0.019   0.009   0.006   0.000   0.000      0      0      0       0       0  13.500   33.136
   15 177   101   100  62.685     4  2.902   1692   4066      0   1906   7397   7397      0      0    0.0  0.000   1638   0.00   0.00   1.00   0.00   0.00   0.00   0.00   1.00   2.48  375.0   0.00      0   1638    235.5   0.00   0.00 1.0284   0.083   0.035   0.027   0.020   0.019   0.009   0.006   0.000   0.000      0      0      0       0       0  16.000   49.136
   15 178   102   101  63.998     4  2.866   1692   4215      0   1903   7546   7546      0      0    0.0  0.000   1638   0.00   0.00   1.00   0.00   0.00   0.00   0.00   1.00   2.48  375.0   0.00      0   1638    235.5   0.00   0.00 1.0303   0.083   0.035   0.027   0.020   0.019   0.009   0.006   0.000   0.000      0      0      0       0       0  17.500   66.636
   15 179   103   102  65.172     4  2.827   1692   4433      0   1908   7764   7764      0      0    0.0  0.000   1638   0.00   0.00   1.00   0.00   0.00   0.00   0.00   1.00   2.48  375.0   0.00      0   1638    235.5   0.00   0.00 1.0322   0.083   0.035   0.027   0.020   0.019   0.009   0.006   0.000   0.000      0      0      0       0       0  17.500   84.136
   15 180   104   103  65.943     4  2.788   1692   4639      0   1912   7969   7969      0      0    0.0  0.000   1638   0.00   0.00   1.00   0.00   0.00   0.00   0.00   1.00   2.48  375.0   0.00      0   1638    235.5   0.00   0.00 1.0342   0.082   0.035   0.027   0.020   0.019   0.009   0.006   0.000   0.000      0      0      0       0       0  18.500  102.636
   15 181   105   104  66.786     4  2.747   1692   4846      0   1916   8177   8177      0      0    0.0  0.000   1638   0.00   0.00   1.00   0.00   0.00   0.00   0.00   1.00   2.48  375.0   0.00      0   1638    235.5   0.00   0.00 1.0365   0.082   0.035   0.027   0.020   0.019   0.009   0.006   0.000   0.000      0      0      0       0       0  20.235  122.871
   15 182   106   105  67.635     4  2.702   1692   5061      0   1921   8392   8392      0      0    0.0  0.000   1638   0.00   0.00   1.00   0.00   0.00   0.00   0.00   1.00   2.48  375.0   0.00      0   1638    235.5   0.00   0.00 1.0387   0.081   0.035   0.027   0.020   0.019   0.009   0.007   0.000   0.000      0      0      0       0       0  20.367  143.238
   15 183   107   106  68.518     4  2.657   1692   5271      0   1925   8602   8602      0      0    0.0  0.000   1638   0.00   0.00   1.00   0.00   0.00   0.00   0.00   1.00   2.48  375.0   0.00      0   1638    235.5   0.00   0.00 1.0410   0.081   0.035   0.028   0.020   0.019   0.009   0.007   0.000   0.000      0      0      0       0       0  21.200  164.438
   15 184   108   107  69.425     4  2.610   1692   5439      0   1924   8770   8770      0      0    0.0  0.000   1638   0.00   0.00   1.00   0.00   0.00   0.00   0.00   1.00   2.48  375.0   0.00      0   1638    235.5   0.00   0.00 1.0434   0.080   0.035   0.028   0.020   0.020   0.009   0.007   0.000   0.000      0      0      0       0       0  21.765  186.202
   15 185   109   108  70.245     5  2.562   1692   4902    694   1919   8233   8927  13053  13053    5.3  0.078   1638   0.00   0.00   1.00   0.00   0.00   0.00   0.00   1.00   2.28  375.0   0.00      0   1638    235.5   0.00   0.00 1.0460   0.079   0.035   0.028   0.020   0.020   0.009   0.007   0.000   0.000      0      0      0       0       0  22.875    9.077
   15 186   110   109  70.880     5  2.560   1692   4805    935   1913   8136   9071  13053  13053    7.2  0.103   1638   0.00   0.00   1.00   0.00   0.00   0.00   0.00   1.00   2.08  375.0   0.00      0   1638    235.5   0.00   0.00 1.0485   0.078   0.035   0.028   0.020   0.019   0.009   0.007   0.000   0.000      0      0      0       0       0  23.469   32.546
   15 187   111   110  71.483     5  2.553   1692   4700   1202   1906   8031   9232  13053  13053    9.2  0.130   1638   0.00   0.08   1.00   0.00   0.00   0.00   0.00   1.00   1.91  375.0   0.00      0   1638    235.5   0.00   0.00 1.0510   0.078   0.035   0.027   0.020   0.019   0.009   0.007   0.000   0.000      0      0      0       0       0  22.318   54.864
   15 188   112   111  72.106     5  2.541   1692   4610   1433   1898   7940   9373  13053  13053   11.0  0.153   1638   0.00   0.00   1.00   0.00   0.00   0.00   0.00   1.00   1.71  375.0   0.00      0   1638    235.5   0.00   0.00 1.0535   0.078   0.035   0.027   0.020   0.019   0.009   0.007   0.000   0.000      0      0      0       0       0  23.059   77.923
   15 189   113   112  72.565     5  2.524   1692   4508   1680   1888   7839   9518  13053  13053   12.9  0.176   1638   0.00   0.00   1.00   0.00   0.00   0.00   0.00   1.00   1.59  375.0   0.00      0   1638    235.5   0.00   0.00 1.0554   0.078   0.034   0.027   0.020   0.019   0.009   0.007   0.000   0.000      0      0      0       0       0  17.000   94.923
   15 190   114   113  72.930     5  2.509   1692   4447   1890   1878   7778   9668  13053  13053   14.5  0.195   1638   0.00   0.00   1.00   0.00   0.00   0.00   0.00   1.00   1.49  375.0   0.00      0   1638    235.5   0.00   0.00 1.0569   0.079   0.034   0.027   0.020   0.019   0.009   0.007   0.000   0.000      0      0      0       0       0  13.500  108.423
   15 191   115   114  73.322     5  2.496   1692   4452   2095   1871   7783   9877  13053  13053   16.0  0.212   1638   0.00   0.05   1.00   0.00   0.00   0.00   0.00   1.00   1.38  375.0   0.00      0   1638    235.5   0.00   0.00 1.0585   0.079   0.034   0.027   0.020   0.019   0.009   0.007   0.000   0.000      0      0      0       0       0  14.500  122.923
   15 192   116   115  73.806     5  2.479   1692   4435   2292   1862   7766  10058  13053  13053   17.6  0.228   1638   0.00   0.25   1.00   0.00   0.00   0.00   0.00   1.00   1.26  375.0   0.00      0   1638    235.5   0.00   0.00 1.0604   0.079   0.034   0.027   0.019   0.019   0.009   0.007   0.000   0.000      0      0      0       0       0  17.900  140.823
   15 193   117   116  74.346     5  2.455   1692   4367   2527   1852   7698  10224  13053  13053   19.4  0.247   1638   0.00   0.48   1.00   0.00   0.00   0.00   0.00   1.00   1.13  375.0   0.00      0   1638    235.5   0.00   0.00 1.0626   0.079   0.033   0.026   0.019   0.019   0.009   0.007   0.000   0.000      0      0      0       0       0  19.964  160.787
   15 194   118   117  74.832     5  2.425   1692   4206   2790   1839   7536  10327  13053  13053   21.4  0.270   1638   0.00   0.54   1.00   0.00   0.00   0.00   0.00   1.00   1.03  375.0   0.00      0   1638    235.5   0.00   0.00 1.0646   0.079   0.033   0.026   0.019   0.018   0.009   0.007   0.000   0.000      0      0      0       0       0  18.000  178.787
   15 195   119   118  75.373     5  2.395   1692   4080   3048   1825   7410  10458  13053  13053   23.3  0.291   1638   0.00   0.60   1.00   0.00   0.00   0.00   0.00   1.00   0.93  375.0   0.00      0   1638    235.5   0.00   0.00 1.0668   0.078   0.033   0.026   0.019   0.018   0.009   0.007   0.000   0.000      0      0      0       0       0  20.000  198.787
   15 196   120   119  75.952     5  2.358   1692   3976   3308   1811   7307  10615  13053  13053   25.3  0.312   1638   0.03   0.69   1.00   0.00   0.00   0.00   0.00   1.00   0.82  375.0   0.00      0   1638    235.5   0.00   0.00 1.0692   0.077   0.033   0.026   0.019   0.018   0.009   0.007   0.000   0.000      0      0      0       0       0  21.455  220.242
   15 197   121   120  76.528     5  2.314   1692   3897   3526   1795   7227  10753  13053  13053   27.0  0.328   1638   0.13   0.77   1.00   0.00   0.00   0.00   0.00   1.00   0.73  375.0   0.00      0   1638    235.5   0.00   0.00 1.0715   0.077   0.032   0.026   0.019   0.018   0.009   0.007   0.000   0.000      0      0      0       0       0  21.306  241.547
   15 198   122   121  77.140     5  2.266   1692   3788   3729   1778   7119  10848  13053  13053   28.6  0.344   1638   0.27   0.89   1.00   0.00   0.00   0.00   0.00   1.00   0.66  375.0   0.00      0   1638    235.5   0.00   0.00 1.0740   0.076   0.032   0.025   0.019   0.018   0.009   0.007   0.000   0.000      0      0      0       0       0  22.639  264.186
   15 199   123   122  77.713     5  2.205   1692   3788   3806   1760   7119  10925  13053  13053   29.2  0.348   1638   0.37   0.97   1.00   0.00   0.00   0.00   0.00   1.00   0.61  375.0   0.00      0   1638    235.5   0.00   0.00 1.0763   0.075   0.032   0.025   0.018   0.018   0.009   0.007   0.000   0.000      0      0      0       0       0  21.200  285.386
   15 200   124   123  78.303     5  2.137   1692   3788   3875   1743   7119  10993  13053  13053   29.7  0.352   1638   0.43   1.00   1.00   0.00   0.00   0.00   0.00   1.00   0.57  375.0   0.00      0   1638    235.5   0.00   0.00 1.0788   0.074   0.032   0.025   0.018   0.018   0.009   0.006   0.000   0.000      0      0      0       0       0  21.833  307.220
   15 201   125   124  78.919     5  2.056   1692   3788   3941   1725   7119  11060  13053  13053   30.2  0.356   1638   0.47   1.00   1.00   0.00   0.00   0.00   0.00   1.00   0.55  375.0   0.00      0   1638    235.5   0.00   0.00 1.0813   0.074   0.031   0.025   0.018   0.017   0.009   0.006   0.000   0.000      0      0      0       0       0  22.800  330.020
   15 202   126   125  79.538     5  1.962   1692   3788   4005   1708   7119  11124  13053  13053   30.7  0.360   1638   0.51   1.00   1.08   0.00   0.00   0.00   0.00   1.00   0.52  375.0   0.00      0   1638    235.5   0.00   0.00 1.0838   0.073   0.031   0.024   0.018   0.017   0.008   0.006   0.000   0.000      0      0      0       0       0  22.875  352.895
   15 203   127   126  80.154     5  1.857   1692   3788   4053   1691   7119  11172  13053  13053   31.0  0.363   1638   0.57   1.00   1.63   0.00   0.00   0.00   0.00   1.00   0.50  375.0   0.00      0   1638    235.5   0.00   0.00 1.0863   0.072   0.031   0.024   0.018   0.017   0.008   0.006   0.000   0.000      0      0      0       0       0  22.816  375.710
   15 204   128   127  80.722     5  1.726   1692   3788   4087   1674   7119  11206  13053  13053   31.3  0.365   1638   0.63   1.00   1.00   0.00   0.00   0.00   0.00   1.00   0.48  375.0   0.00      0   1638    235.5   0.00   0.00 1.0886   0.071   0.030   0.024   0.018   0.017   0.008   0.006   0.000   0.000      0      0      0       0       0  21.000  396.710
   15 205   129   128  81.295     5  1.607   1692   3788   4129   1657   7119  11248  13053  13053   31.6  0.367   1638   0.63   1.00   1.00   0.00   0.00   0.00   0.00   1.00   0.47  375.0   0.00      0   1638    235.5   0.00   0.00 1.0909   0.071   0.030   0.024   0.017   0.017   0.008   0.006   0.000   0.000      0      0      0       0       0  21.200  417.910
   15 206   130   129  81.795     5  1.479   1692   3788   4169   1641   7119  11287  13053  13053   31.9  0.369   1638   0.67   1.00   1.00   0.00   0.00   0.00   0.00   1.00   0.45  375.0   0.00      0   1638    235.5   0.00   0.00 1.0930   0.070   0.030   0.023   0.017   0.017   0.008   0.006   0.000   0.000      0      0      0       0       0  18.500  436.410
   15 207   131   130  82.214     5  1.360   1692   3788   4210   1624   7119  11329  13053  13053   32.3  0.372   1638   0.69   1.00   1.00   0.00   0.00   0.00   0.00   1.00   0.44  375.0   0.00      0   1638    235.5   0.00   0.00 1.0947   0.069   0.029   0.023   0.017   0.016   0.008   0.006   0.000   0.000      0      0      0       0       0  15.500  451.910
   15 208   132   131  82.687     5  1.254   1692   3788   4248   1608   7119  11366  13053  13053   32.5  0.374   1638   0.62   1.00   1.00   0.00   0.00   0.00   0.00   1.00   0.43  375.0   0.00      0   1638    235.5   0.00   0.00 1.0966   0.069   0.029   0.023   0.017   0.016   0.008   0.006   0.000   0.000      0      0      0       0       0  17.500  469.410
   15 209   133   132  83.146     5  1.137   1692   3788   4282   1592   7119  11401  13053  13053   32.8  0.376   1638   0.61   1.00   1.00   0.00   0.00   0.00   0.00   1.00   0.42  375.0   0.00      0   1638    235.5   0.00   0.00 1.0985   0.068   0.029   0.023   0.017   0.016   0.008   0.006   0.000   0.000      0      0      0       0       0  17.000  486.410
   15 210   134   133  83.538     5  1.020   1692   3788   4308   1576   7119  11427  13053  13053   33.0  0.377   1638   0.59   1.00   1.00   0.00   0.00   0.00   0.00   1.00   0.41  375.0   0.00      0   1638    235.5   0.00   0.00 1.1001   0.067   0.029   0.022   0.016   0.016   0.008   0.006   0.000   0.000      0      0      0       0       0  14.500  500.910
   15 211   135   134  83.916     5  0.919   1692   3788   4338   1560   7119  11457  13053  13053   33.2  0.379   1638   0.65   1.00   1.00   0.00   0.00   0.00   0.00   1.00   0.40  375.0   0.00      0   1638    235.5   0.00   0.00 1.1016   0.067   0.028   0.022   0.016   0.016   0.008   0.006   0.000   0.000      0      0      0       0       0  14.000  514.910
   15 212   136   135  84.349     5  0.814   1692   3788   4362   1545   7119  11481  13053  13053   33.4  0.380   1638   0.71   1.00   1.00   0.00   0.00   0.00   0.00   1.00   0.39  375.0   0.00      0   1638    235.5   0.00   0.00 1.1034   0.066   0.028   0.022   0.016   0.016   0.008   0.006   0.000   0.000      0      0      0       0       0  16.000  530.910
   15 213   137   136  84.795     5  0.684   1692   3788   4373   1529   7119  11492  13053  13053   33.5  0.381   1638   0.75   1.00   1.00   0.00   0.00   0.00   0.00   1.00   0.38  375.0   0.00      0   1638    235.5   0.00   0.00 1.1052   0.065   0.028   0.022   0.016   0.015   0.008   0.006   0.000   0.000      0      0      0       0       0  16.500  547.410
   15 214   138   137  85.295     5  0.541   1692   3788   4385   1514   7119  11504  13053  13053   33.6  0.381   1638   0.75   1.00   1.00   0.00   0.00   0.00   0.00   1.00   0.37  375.0   0.00      0   1638    235.5   0.00   0.00 1.1072   0.065   0.027   0.022   0.016   0.015   0.007   0.006   0.000   0.000      0      0      0       0       0  18.500  565.910
   15 215   139   138  85.819     5  0.376   1692   3788   4395   1499   7119  11514  13053  13053   33.7  0.382   1638   0.75   1.00   1.00   0.00   0.00   0.00   0.00   1.00   0.37  375.0   0.00      0   1638    235.5   0.00   0.00 1.1093   0.064   0.027   0.021   0.016   0.015   0.007   0.006   0.000   0.000      0      0      0       0       0  19.382  585.293
   15 216   140   139  86.382     5  0.197   1692   3788   4399   1484   7119  11518  13053  13053   33.7  0.382   1638   0.76   1.00   1.32   0.00   0.00   0.00   0.00   1.00   0.37  375.0   0.00      0   1638    235.5   0.00   0.00 1.1116   0.063   0.027   0.021   0.016   0.015   0.007   0.006   0.000   0.000      0      0      0       0       0  20.842  606.135
   15 217   141   140  86.942     5  0.000   1692   3789   4399   1469   7119  11518  13053  13053   33.7  0.382   1638   0.76   1.00   1.00   0.00   0.00   0.00   0.00   1.00   0.37  375.0   0.00      0   1638    235.5   0.00   0.00 1.1139   0.063   0.027   0.021   0.015   0.015   0.007   0.005   0.000   0.000      0      0      0       0       0  20.719  626.854
   15 218   142   141  87.531     5  0.000   1692   3789   4399   1454   7119  11519  13053  13053   33.7  0.382   1638   0.76   1.00   1.92   0.00   0.00   0.00   0.00   1.00   0.37  375.0   0.00      0   1638    235.5   0.00   0.00 1.1163   0.062   0.026   0.021   0.015   0.015   0.007   0.005   0.000   0.000      0      0      0       0       0  21.775  648.629
   15 219   143   142  88.140     5  0.000   1692   3789   4399   1440   7120  11519  13053  13053   33.7  0.382   1638   0.75   1.00   2.49   0.00   0.00   0.00   0.00   1.00   0.37  375.0   0.00      0   1638    235.5   0.00   0.00 1.1188   0.061   0.026   0.021   0.015   0.015   0.007   0.005   0.000   0.000      0      0      0       0       0  22.551  671.180
   15 220   144   143  88.757     5  0.000   1692   3790   4399   1425   7120  11520  13053  13053   33.7  0.382   1638   0.75   1.00   2.17   0.00   0.00   0.00   0.00   1.00   0.37  375.0   0.00      0   1638    235.5   0.00   0.00 1.1213   0.061   0.026   0.020   0.015   0.014   0.007   0.005   0.000   0.000      0      0      0       0       0  22.816  693.995
   15 221   145   144  89.380     5  0.000   1692   3790   4399   1411   7121  11520  13053  13053   33.7  0.382   1638   0.75   1.00   1.87   0.00   0.00   0.00   0.00   1.00   0.37  375.0   0.00      0   1638    235.5   0.00   0.00 1.1238   0.060   0.026   0.020   0.015   0.014   0.007   0.005   0.000   0.000      0      0      0       0       0  23.059  717.054
   15 222   146   145  89.998     5  0.000   1692   3790   4399   1397   7121  11520  13053  13053   33.7  0.382   1638   0.75   1.00   1.00   0.00   0.00   0.00   0.00   1.00   0.37  375.0   0.00      0   1638    235.5   0.00   0.00 1.1263   0.060   0.025   0.020   0.015   0.014   0.007   0.005   0.000   0.000      0      0      0       0       0  22.885  739.939
   15 223   147   146  90.000     6  0.000   1692   3790   4399   1383   7121  11520  13053  13053   33.7  0.382   1638   0.75   1.00   1.30   0.00   0.00   0.00   0.00   1.00   0.37  375.0   0.00      0   1638    235.5   0.00   0.00 1.1263   0.059   0.025   0.020   0.014   0.014   0.007   0.005   0.000   0.000      0      0      0       0       0  22.667   22.606
   15 224   148   147  90.000     7  0.000   1692   3790   4399   1383   7121  11520  13053  13053   33.7  0.382   1638   0.75   1.00   1.30   0.00   0.00   0.00   0.00   1.00   0.37  375.0   0.00      0   1638    235.5   0.00   0.00 1.1263   0.059   0.025   0.020   0.014   0.014   0.007   0.005   0.000   0.000      0      0      0       0       0  22.211    7.000

*DSSAT Cropping System Model Ver. 4.8.5.000 -release  OCT 27, 2025 22:35:44

*RUN   2        : 2                         WHAPS048 TUDU1501    2
 MODEL          : WHAPS048 - Wheat
 EXPERIMENT     : TUDU1501 WH
 DATA PATH      :
 TREATMENT  2   : 2                         WHAPS048
  
!                                                                                                                                                                                                                                             Root Dens. (cm/cm3) by soil depth (cm):
!                                                                                                                                                                                                                                             0-5    5-15   15-30   30-45   45-60   60-80  80-100 100-150 150-200
@YEAR DOY   DAS   DAP    DCCD  GSTD   LAID   LWAD   SWAD   GWAD   RWAD   VWAD   CWAD   G#AD   G#AD2  GWGD   HIAD   SHAD   WSPD   WSGD   SLFT   NSTD   EWSD  PST1A  PST2A   KSTD   LN%D   TPSM   HIPD   PWDD   PWTD     SLAD   CHTD   CWID   RDPD    RL1D    RL2D    RL3D    RL4D    RL5D    RL6D    RL7D    RL8D    RL9D   CDAD   LDAD   SDAD   SNW0C   SNW1C    DTTD   SUMDTT
   15 077     1     0   0.000     8  0.000      0      0      0      0      0      0      0      0    0.0  0.000      0   0.00   0.00   0.00   0.00   0.00   0.00   0.00   1.00   0.00    0.0   0.00      0      0      0.0   0.00   0.00 0.0250   0.000   0.000   0.000   0.000   0.000   0.000   0.000   0.000   0.000      0      0      0       0       0   7.000    0.000
   15 078     2     1   0.000     8  0.000      0      0      0      0      0      0      0      0    0.0  0.000      0   0.00   0.00   0.00   0.00   0.00   0.00   0.00   1.00   0.00    0.0   0.00      0      0      0.0   0.00   0.00 0.0250   0.000   0.000   0.000   0.000   0.000   0.000   0.000   0.000   0.000      0      0      0       0       0   7.097    7.097
   15 079     3     2   1.022     9  0.000      0      0      0      0      0      0      0      0    0.0  0.000      0   0.00   0.00   0.00   0.00   0.00   0.00   0.00   1.00   0.00    0.0   0.00      0      0      0.0   0.00   0.00 0.0250   0.000   0.000   0.000   0.000   0.000   0.000   0.000   0.000   0.000      0      0      0       0       0   6.695    6.695
   15 080     4     3   2.060     9  0.000      0      0      0      0      0      0      0      0    0.0  0.000      0   0.00   0.00   0.00   0.00   0.00   0.00   0.00   1.00   0.00    0.0   0.00      0      0      0.0   0.00   0.00 0.0317   0.000   0.000   0.000   0.000   0.000   0.000   0.000   0.000   0.000      0      0      0       0       0   6.798   13.493
   15 081     5     4   2.594     9  0.000      0      0      0      0      0      0      0      0    0.0  0.000      0   0.00   0.00   0.00   0.00   0.00   0.00   0.00   1.00   0.00    0.0   0.00      0      0      0.0   0.00   0.00 0.0385   0.000   0.000   0.000   0.000   0.000   0.000   0.000   0.000   0.000      0      0      0       0       0   3.500   16.993
   15 082     6     5   3.052     9  0.000      0      0      0      0      0      0      0      0    0.0  0.000      0   0.00   0.00   0.00   0.00   0.00   0.00   0.00   1.00   0.00    0.0   0.00      0      0      0.0   0.00   0.00 0.0420   0.000   0.000   0.000   0.000   0.000   0.000   0.000   0.000   0.000      0      0      0       0       0   3.000   19.993
   15 083     7     6   4.227     9  0.000      0      0      0      0      0      0      0      0    0.0  0.000      0   0.00   0.00   0.00   0.00   0.00   0.00   0.00   1.00   0.00    0.0   0.00      0      0      0.0   0.00   0.00 0.0450   0.000   0.000   0.000   0.000   0.000   0.000   0.000   0.000   0.000      0      0      0       0       0   7.695   27.688
   15 084     8     7   5.525     9  0.000      0      0      0      0      0      0      0      0    0.0  0.000      0   0.00   0.00   0.00   0.00   0.00   0.00   0.00   1.00   0.00    0.0   0.00      0      0      0.0   0.00   0.00 0.0500   0.000   0.000   0.000   0.000   0.000   0.000   0.000   0.000   0.000      0      0      0       0       0   8.500   36.188
   15 085     9     8   6.365     9  0.000      0      0      0      0      0      0      0      0    0.0  0.000      0   0.00   0.00   0.00   0.00   0.00   0.00   0.00   1.00   0.00    0.0   0.00      0      0      0.0   0.00   0.00 0.0500   0.000   0.000   0.000   0.000   0.000   0.000   0.000   0.000   0.000      0      0      0       0       0   5.500   41.688
   15 086    10     9   7.281     9  0.000      0      0      0      0      0      0      0      0    0.0  0.000      0   0.00   0.00   0.00   0.00   0.00   0.00   0.00   1.00   0.00    0.0   0.00      0      0      0.0   0.00   0.00 0.0500   0.000   0.000   0.000   0.000   0.000   0.000   0.000   0.000   0.000      0      0      0       0       0   6.000   47.688
   15 087    11    10   8.197     9  0.000      0      0      0      0      0      0      0      0    0.0  0.000      0   0.00   0.00   0.00   0.00   0.00   0.00   0.00   1.00   0.00    0.0   0.00      0      0      0.0   0.00   0.00 0.0500   0.000   0.000   0.000   0.000   0.000   0.000   0.000   0.000   0.000      0      0      0       0       0   6.000   53.688
   15 088    12    11   9.571     9  0.000      0      0      0      0      0      0      0      0    0.0  0.000      0   0.00   0.00   0.00   0.00   0.00   0.00   0.00   1.00   0.00    0.0   0.00      0      0      0.0   0.00   0.00 0.0500   0.000   0.000   0.000   0.000   0.000   0.000   0.000   0.000   0.000      0      0      0       0       0   9.000   62.688
   15 089    13    12  10.159     1  0.016     10      0      0     23     11     11      0      0    0.0  0.000      0   0.00   0.00   1.00   0.00   0.00   0.00   0.00   1.00   5.59  375.0   0.00      0      0    298.8   0.00   0.00 0.0612   0.039   0.004   0.000   0.000   0.000   0.000   0.000   0.000   0.000      0      0      0       0       0   6.000    3.188
   15 090    14    13  10.392     1  0.018     12      0      0     23     14     14      0      0    0.0  0.000      1   0.00   0.00   1.00   0.00   0.00   0.00   0.00   1.00   5.06  375.0   0.00      0      1    297.1   0.00   0.00 0.0743   0.039   0.004   0.000   0.000   0.000   0.000   0.000   0.000   0.000      0      0      0       0       0   7.000    7.841
   15 091    15    14  10.493     1  0.020     13      0      0     23     15     15      0      0    0.0  0.000      2   0.00   0.00   1.00   0.00   0.00   0.00   0.00   1.00   6.02  375.0   0.00      0      2    296.4   0.00   0.00 0.0799   0.039   0.004   0.000   0.000   0.000   0.000   0.000   0.000   0.000      0      0      0       0       0   3.000    9.860
   15 092    16    15  10.595     1  0.021     13      0      0     23     16     16      0      0    0.0  0.000      2   0.00   0.00   1.00   0.00   0.00   0.00   0.00   1.00   5.99  375.0   0.00      0      2    295.7   0.00   0.00 0.0855   0.039   0.004   0.000   0.000   0.000   0.000   0.000   0.000   0.000      0      0      0       0       0   3.000   11.904
   15 093    17    16  10.771     1  0.024     15      0      0     24     18     18      0      0    0.0  0.000      3   0.00   0.00   1.00   0.00   0.00   0.00   0.00   1.00   5.59  375.0   0.00      0      3    294.4   0.00   0.00 0.0951   0.038   0.004   0.000   0.000   0.000   0.000   0.000   0.000   0.000      0      0      0       0       0   5.097   15.418
   15 094    18    17  10.876     1  0.025     16      0      0     24     20     20      0      0    0.0  0.000      3   0.00   0.00   1.00   0.00   0.00   0.00   0.00   1.00   5.94  375.0   0.00      0      3    293.7   0.00   0.00 0.1007   0.038   0.004   0.000   0.000   0.000   0.000   0.000   0.000   0.000      0      0      0       0       0   3.000   17.515
   15 095    19    18  10.989     1  0.027     16      0      0     25     21     21      0      0    0.0  0.000      4   0.00   0.00   1.00   0.00   0.00   0.00   0.00   1.00   6.00  375.0   0.00      0      4    292.9   0.00   0.00 0.1066   0.038   0.004   0.000   0.000   0.000   0.000   0.000   0.000   0.000      0      0      0       0       0   3.195   19.772
   15 096    20    19  11.103     1  0.029     17      0      0     25     22     22      0      0    0.0  0.000      5   0.00   0.00   1.00   0.00   0.00   0.00   0.00   1.00   5.99  375.0   0.00      0      5    292.2   0.00   0.00 0.1126   0.037   0.004   0.000   0.000   0.000   0.000   0.000   0.000   0.000      0      0      0       0       0   3.195   22.052
   15 097    21    20  11.254     1  0.032     18      0      0     26     25     25      0      0    0.0  0.000      6   0.00   0.00   1.00   0.00   0.00   0.00   0.00   1.00   5.75  375.0   0.00      0      6    291.2   0.00   0.00 0.1205   0.037   0.004   0.000   0.000   0.000   0.000   0.000   0.000   0.000      0      0      0       0       0   4.195   25.075
   15 098    22    21  11.490     1  0.038     23      0      0     28     31     31      0      0    0.0  0.000      8   0.00   0.00   1.00   0.00   0.00   0.00   0.00   1.00   4.95  375.0   0.00      0      8    289.6   0.00   0.00 0.1326   0.037   0.004   0.000   0.000   0.000   0.000   0.000   0.000   0.000      0      0      0       0       0   6.500   29.805
   15 099    23    22  11.857     1  0.045     34      0      0     30     45     45      0      0    0.0  0.000     10   0.00   0.00   1.00   0.00   0.00   0.00   0.00   1.00   4.17  375.0   0.00      0     10    287.3   0.00   0.00 0.1513   0.037   0.004   0.000   0.000   0.000   0.000   0.000   0.000   0.000      0      0      0       0       0  10.000   37.136
   15 100    24    23  12.263     1  0.053     41      0      0     32     54     54      0      0    0.0  0.000     13   0.00   0.00   1.00   0.50   0.00   0.00   0.00   1.00   5.06  375.0   0.00      0     13    284.8   0.00   0.00 0.1683   0.036   0.004   0.000   0.000   0.000   0.000   0.000   0.000   0.000      0      0      0       0       0  11.000   45.251
   15 101    25    24  12.689     1  0.061     52      0      0     34     68     68      0      0    0.0  0.000     16   0.00   0.00   1.00   0.28   0.00   0.00   0.00   1.00   4.71  375.0   0.00      0     16    282.3   0.00   0.00 0.1860   0.036   0.004   0.000   0.000   0.000   0.000   0.000   0.000   0.000      0      0      0       0       0  11.500   53.784
   15 102    26    25  13.118     1  0.071     63      0      0     36     83     83      0      0    0.0  0.000     19   0.00   0.00   1.00   0.34   0.00   0.00   0.00   1.00   4.89  375.0   0.00      0     19    279.9   0.00   0.00 0.2037   0.036   0.005   0.000   0.000   0.000   0.000   0.000   0.000   0.000      0      0      0       0       0  11.500   62.366
   15 103    27    26  13.550     1  0.082     76      0      0     40    100    100      0      0    0.0  0.000     24   0.00   0.00   1.00   0.29   0.00   0.00   0.00   1.00   4.89  375.0   0.00      0     24    277.6   0.00   0.00 0.2214   0.036   0.005   0.000   0.000   0.000   0.000   0.000   0.000   0.000      0      0      0       0       0  11.500   70.997
   15 104    28    27  13.984     1  0.098     83      0      0     44    113    113      0      0    0.0  0.000     29   0.00   0.00   1.00   0.28   0.00   0.00   0.00   1.00   5.19  375.0   0.00      0     29    275.4   0.00   0.00 0.2391   0.036   0.005   0.000   0.000   0.000   0.000   0.000   0.000   0.000      0      0      0       0       0  11.500   79.678
   15 105    29    28  14.514     1  0.119     91      0      0     50    128    128      0      0    0.0  0.000     37   0.00   0.00   1.00   0.23   0.00   0.00   0.00   1.00   5.07  375.0   0.00      0     37    272.8   0.00   0.00 0.2607   0.036   0.005   0.000   0.000   0.000   0.000   0.000   0.000   0.000      0      0      0       0       0  14.000   90.282
   15 106    30    29  15.084     1  0.138     97      0      0     56    142    142      0      0    0.0  0.000     44   0.00   0.00   1.00   0.26   0.00   0.00   0.00   1.00   4.98  375.0   0.00      0     44    270.1   0.00   0.00 0.2838   0.035   0.005   0.001   0.000   0.000   0.000   0.000   0.000   0.000      0      0      0       0       0  15.000  101.674
   15 107    31    30  15.485     1  0.151    103      0      0     60    152    152      0      0    0.0  0.000     49   0.00   0.00   1.00   0.29   0.00   0.00   0.00   1.00   5.69  375.0   0.00      0     49    268.3   0.00   0.00 0.2999   0.035   0.005   0.001   0.000   0.000   0.000   0.000   0.000   0.000      0      0      0       0       0  10.500  109.700
   15 108    32    31  15.678     1  0.167    109      0      0     68    164    164      0      0    0.0  0.000     55   0.00   0.00   1.00   0.00   0.00   0.00   0.00   1.00   5.77  375.0   0.00      0     55    267.5   0.00   0.00 0.3054   0.035   0.005   0.001   0.000   0.000   0.000   0.000   0.000   0.000      0      0      0       0       0   5.000  113.560
   15 109    33    32  15.912     1  0.190    117      0      0     81    181    181      0      0    0.0  0.000     63   0.00   0.00   1.00   0.00   0.00   0.00   0.00   1.00   5.73  375.0   0.00      0     63    266.5   0.00   0.00 0.3120   0.035   0.006   0.001   0.000   0.000   0.000   0.000   0.000   0.000      0      0      0       0       0   6.000  118.236
   15 110    34    33  16.226     1  0.226    131      0      0     91    208    208      0      0    0.0  0.000     77   0.00   0.00   1.00   0.00   0.00   0.00   0.00   1.00   5.65  375.0   0.00      0     77    265.2   0.00   0.00 0.3208   0.036   0.006   0.001   0.000   0.000   0.000   0.000   0.000   0.000      0      0      0       0       0   8.000  124.523
   15 111    35    34  16.622     1  0.272    148      0      0    105    243    243      0      0    0.0  0.000     94   0.00   0.00   1.00   0.00   0.00   0.00   0.00   1.00   5.56  375.0   0.00      0     94    263.7   0.00   0.00 0.3318   0.036   0.007   0.002   0.000   0.000   0.000   0.000   0.000   0.000      0      0      0       0       0  10.000  132.435
   15 112    36    35  17.040     1  0.325    168      0      0    122    283    283      0      0    0.0  0.000    115   0.00   0.00   1.00   0.00   0.00   0.00   0.00   1.00   5.51  375.0   0.00      0    115    262.1   0.00   0.00 0.3434   0.036   0.007   0.002   0.000   0.000   0.000   0.000   0.000   0.000      0      0      0       0       0  10.500  140.794
   15 113    37    36  17.281     1  0.350    178      0      0    140    302    302      0      0    0.0  0.000    124   0.00   0.00   1.00   0.00   0.00   0.00   0.00   1.00   5.53  375.0   0.00      0    124    261.2   0.00   0.00 0.3500   0.037   0.008   0.002   0.000   0.000   0.000   0.000   0.000   0.000      0      0      0       0       0   6.000  145.614
   15 114    38    37  17.645     1  0.402    198      0      0    169    343    343      0      0    0.0  0.000    144   0.00   0.00   1.00   0.00   0.00   0.00   0.00   1.00   5.44  375.0   0.00      0    144    259.9   0.00   0.00 0.3599   0.037   0.008   0.003   0.000   0.000   0.000   0.000   0.000   0.000      0      0      0       0       0   9.000  152.898
   15 115    39    38  18.093     1  0.450    217      0      0    183    380    380      0      0    0.0  0.000    163   0.00   0.00   1.00   0.00   0.00   0.00   0.00   1.00   5.36  375.0   0.00      0    163    258.4   0.00   0.00 0.3720   0.039   0.009   0.003   0.000   0.000   0.000   0.000   0.000   0.000      0      0      0       0       0  11.000  161.851
   15 116    40    39  18.704     1  0.523    245      0      0    206    436    436      0      0    0.0  0.000    191   0.00   0.00   1.00   0.00   0.00   0.00   0.00   1.00   5.27  375.0   0.00      0    191    256.4   0.00   0.00 0.3885   0.039   0.010   0.004   0.001   0.000   0.000   0.000   0.000   0.000      0      0      0       0       0  15.000  174.090
   15 117    41    40  19.277     1  0.609    279      0      0    233    504    504      0      0    0.0  0.000    225   0.00   0.00   1.00   0.00   0.00   0.00   0.00   1.00   5.21  375.0   0.00      0    225    254.7   0.00   0.00 0.4039   0.040   0.010   0.004   0.001   0.000   0.000   0.000   0.000   0.000      0      0      0       0       0  14.000  185.550
   15 118    42    41  19.608     1  0.654    297      0      0    246    540    540      0      0    0.0  0.000    243   0.00   0.00   1.00   0.00   0.00   0.00   0.00   1.00   5.22  375.0   0.00      0    243    253.7   0.00   0.00 0.4127   0.041   0.011   0.005   0.001   0.000   0.000   0.000   0.000   0.000      0      0      0       0       0   8.000  192.151
   15 119    43    42  19.878     1  0.689    310      0      0    270    567    567      0      0    0.0  0.000    257   0.00   0.00   1.00   0.00   0.00   0.00   0.00   1.00   5.18  375.0   0.00      0    257    252.9   0.00   0.00 0.4198   0.042   0.011   0.005   0.001   0.000   0.000   0.000   0.000   0.000      0      0      0       0       0   6.500  197.561
   15 120    44    43  20.297     1  0.762    339      0      0    305    625    625      0      0    0.0  0.000    286   0.00   0.00   1.00   0.00   0.00   0.00   0.00   1.00   5.13  375.0   0.00      0    286    251.8   0.00   0.00 0.4308   0.043   0.012   0.006   0.002   0.000   0.000   0.000   0.000   0.000      0      0      0       0       0  10.000  205.936
   15 121    45    44  20.634     1  0.811    359      0      0    318    664    664      0      0    0.0  0.000    305   0.00   0.00   1.00   0.00   0.00   0.00   0.00   1.00   5.13  375.0   0.00      0    305    250.9   0.00   0.00 0.4396   0.043   0.013   0.007   0.002   0.000   0.000   0.000   0.000   0.000      0      0      0       0       0   8.000  212.689
   15 122    46    45  21.059     1  0.887    389      0      0    342    725    725      0      0    0.0  0.000    336   0.00   0.00   1.00   0.00   0.00   0.00   0.00   1.00   5.06  375.0   0.00      0    336    249.8   0.00   0.00 0.4506   0.043   0.014   0.007   0.002   0.000   0.000   0.000   0.000   0.000      0      0      0       0       0  10.000  221.184
   15 123    47    46  21.613     1  0.960    419      0      0    364    784    784      0      0    0.0  0.000    365   0.00   0.00   1.00   0.00   0.00   0.00   0.00   1.00   4.92  375.0   0.00      0    365    248.5   0.00   0.00 0.4649   0.043   0.014   0.008   0.003   0.000   0.000   0.000   0.000   0.000      0      0      0       0       0  13.000  232.269
   15 124    48    47  22.339     1  1.075    465      0      0    400    877    877      0      0    0.0  0.000    412   0.00   0.00   1.00   0.00   0.00   0.00   0.00   1.00   4.73  375.0   0.00      0    412    246.8   0.00   0.00 0.4836   0.043   0.015   0.008   0.003   0.000   0.000   0.000   0.000   0.000      0      0      0       0       0  17.000  246.776
   15 125    49    48  23.128     1  1.174    506      0      0    430    958    958      0      0    0.0  0.000    452   0.00   0.00   1.00   0.03   0.00   0.00   0.00   1.00   4.61  375.0   0.00      0    452    245.2   0.00   0.00 0.5040   0.043   0.015   0.009   0.004   0.000   0.000   0.000   0.000   0.000      0      0      0       0       0  18.500  262.564
   15 126    50    49  23.600     1  1.262    542      0      0    484   1030   1030      0      0    0.0  0.000    488   0.00   0.00   1.00   0.06   0.00   0.00   0.00   1.00   4.40  375.0   0.00      0    488    244.2   0.00   0.00 0.5161   0.043   0.015   0.010   0.005   0.001   0.000   0.000   0.000   0.000      0      0      0       0       0  11.000  272.002
   15 127    51    50  24.160     1  1.362    583      0      0    560   1112   1112      0      0    0.0  0.000    529   0.00   0.00   1.00   0.13   0.00   0.00   0.00   1.00   4.24  375.0   0.00      0    529    243.2   0.00   0.00 0.5304   0.043   0.016   0.011   0.006   0.002   0.000   0.000   0.000   0.000      0      0      0       0       0  13.000  283.199
   15 128    52    51  24.807     1  1.473    629      0      0    647   1204   1204      0      0    0.0  0.000    575   0.00   0.00   1.00   0.17   0.00   0.00   0.00   1.00   4.11  375.0   0.00      0    575    242.1   0.00   0.00 0.5469   0.044   0.017   0.012   0.008   0.003   0.000   0.000   0.000   0.000      0      0      0       0       0  15.000  296.148
   15 129    53    52  25.392     1  1.571    669      0      0    712   1285   1285      0      0    0.0  0.000    616   0.00   0.00   1.00   0.21   0.00   0.00   0.00   1.00   4.03  375.0   0.00      0    616    241.1   0.00   0.00 0.5617   0.045   0.018   0.013   0.010   0.005   0.000   0.000   0.000   0.000      0      0      0       0       0  13.500  307.842
   15 130    54    53  25.957     1  1.666    709      0      0    783   1364   1364      0      0    0.0  0.000    655   0.00   0.00   1.00   0.22   0.00   0.00   0.00   1.00   3.96  375.0   0.00      0    655    240.2   0.00   0.00 0.5760   0.045   0.019   0.014   0.011   0.007   0.000   0.000   0.000   0.000      0      0      0       0       0  13.000  319.146
   15 131    55    54  26.525     1  1.761    748      0      0    855   1444   1444      0      0    0.0  0.000    695   0.00   0.00   1.00   0.23   0.00   0.00   0.00   1.00   3.87  375.0   0.00      0    695    239.4   0.00   0.00 0.5903   0.047   0.020   0.015   0.012   0.009   0.000   0.000   0.000   0.000      0      0      0       0       0  13.000  330.492
   15 132    56    55  27.287     1  1.890    803      0      0    955   1552   1552      0      0    0.0  0.000    749   0.00   0.00   1.00   0.24   0.00   0.00   0.00   1.00   3.71  375.0   0.00      0    749    238.3   0.00   0.00 0.6096   0.048   0.021   0.016   0.012   0.010   0.000   0.000   0.000   0.000      0      0      0       0       0  17.474  345.750
   15 133    57    56  28.052     1  2.014    855      0      0   1049   1656   1656      0      0    0.0  0.000    801   0.00   0.00   1.00   0.29   0.00   0.00   0.00   1.00   3.56  375.0   0.00      0    801    237.3   0.00   0.00 0.6242   0.050   0.023   0.017   0.014   0.012   0.000   0.000   0.000   0.000      0      0      0       0       0  17.500  361.036
   15 134    58    57  28.687     1  2.111    896      0      0   1121   1738   1738      0      0    0.0  0.000    842   0.00   0.00   1.00   0.34   0.00   0.00   0.00   1.00   3.46  375.0   0.00      0    842    236.6   0.00   0.00 0.6363   0.052   0.025   0.019   0.015   0.013   0.001   0.000   0.000   0.000      0      0      0       0       0  14.500  373.734
   15 135    59    58  29.171     1  2.182    926      0      0   1170   1799   1799      0      0    0.0  0.000    872   0.00   0.00   1.00   0.37   0.00   0.00   0.00   1.00   3.41  375.0   0.00      0    872    236.0   0.00   0.00 0.6455   0.053   0.026   0.020   0.015   0.014   0.002   0.000   0.000   0.000      0      0      0       0       0  11.000  383.419
   15 136    60    59  29.702     1  2.260    959      0      0   1225   1865   1865      0      0    0.0  0.000    905   0.00   0.00   1.00   0.38   0.00   0.00   0.00   1.00   3.34  375.0   0.00      0    905    235.5   0.00   0.00 0.6555   0.054   0.027   0.021   0.016   0.015   0.002   0.000   0.000   0.000      0      0      0       0       0  12.000  394.031
   15 137    61    60  30.237     2  2.400   1018     23      0   1257   2006   2006      0      0    0.0  0.000    965   0.00   0.00   1.00   0.40   0.00   0.00   0.00   1.00   3.18  491.2   0.00      0    965    235.5   0.00   0.00 0.6668   0.055   0.028   0.022   0.017   0.015   0.003   0.000   0.000   0.000      0      0      0       0       0  13.500    6.010
   15 138    62    61  30.828     2  2.564   1088     53      0   1300   2176   2176      0      0    0.0  0.000   1035   0.00   0.00   1.00   0.46   0.00   0.00   0.00   1.00   3.01  526.0   0.00      0   1035    235.5   0.00   0.00 0.6794   0.055   0.028   0.022   0.017   0.016   0.003   0.000   0.000   0.000      0      0      0       0       0  15.000   21.010
   15 139    63    62  31.359     2  2.640   1120     69      0   1314   2256   2256      0      0    0.0  0.000   1067   0.00   0.00   1.00   0.54   0.00   0.00   0.00   1.00   2.96  535.3   0.00      0   1067    235.5   0.00   0.00 0.6906   0.056   0.029   0.023   0.017   0.016   0.003   0.000   0.000   0.000      0      0      0       0       0  13.500   34.510
[...]
   15 171    95    94  56.464     3  1.355    942   1252      0   1061   3082   3082      0      0    0.0  0.000    888   0.00   0.00   1.00   0.47   0.00   0.00   0.00   1.00   2.20  375.0   0.00      0    888    235.5   0.00   0.00 1.0191   0.039   0.022   0.018   0.013   0.010   0.004   0.003   0.000   0.000      0      0      0       0       0  12.000  185.136
   15 172    96    95  57.410     3  1.343    942   1338      0   1071   3168   3168      0      0    0.0  0.000    888   0.00   0.00   1.00   0.44   0.00   0.00   0.00   1.00   2.20  375.0   0.00      0    888    235.5   0.00   0.00 1.0206   0.039   0.022   0.019   0.013   0.010   0.005   0.003   0.000   0.000      0      0      0       0       0  13.000  198.136
   15 173    97    96  58.537     3  1.329    942   1431      0   1082   3261   3261      0      0    0.0  0.000    888   0.00   0.00   1.00   0.41   0.00   0.00   0.00   1.00   2.20  375.0   0.00      0    888    235.5   0.00   0.00 1.0223   0.039   0.022   0.019   0.013   0.010   0.005   0.003   0.000   0.000      0      0      0       0       0  15.500  213.636
   15 174    98    97  59.460     4  1.329    942   1541      0   1089   3371   3371      0      0    0.0  0.000    888   0.00   0.00   1.00   0.40   0.00   0.00   0.00   1.00   2.20  375.0   0.00      0    888    235.5   0.00   0.00 1.0236   0.039   0.022   0.019   0.013   0.010   0.005   0.003   0.000   0.000      0      0      0       0       0  12.500    6.136
   15 175    99    98  60.473     4  1.310    942   1667      0   1099   3496   3496      0      0    0.0  0.000    888   0.00   0.00   1.00   0.39   0.00   0.00   0.00   1.00   2.20  375.0   0.00      0    888    235.5   0.00   0.00 1.0251   0.039   0.022   0.019   0.013   0.010   0.005   0.004   0.000   0.000      0      0      0       0       0  13.500   19.636
   15 176   100    99  61.485     4  1.290    942   1800      0   1108   3630   3630      0      0    0.0  0.000    888   0.00   0.00   1.00   0.35   0.00   0.00   0.00   1.00   2.20  375.0   0.00      0    888    235.5   0.00   0.00 1.0266   0.039   0.022   0.019   0.013   0.010   0.005   0.004   0.000   0.000      0      0      0       0       0  13.500   33.136
   15 177   101   100  62.685     4  1.270    942   1940      0   1118   3769   3769      0      0    0.0  0.000    888   0.00   0.00   1.00   0.28   0.00   0.00   0.00   1.00   2.20  375.0   0.00      0    888    235.5   0.00   0.00 1.0284   0.039   0.022   0.019   0.014   0.011   0.005   0.004   0.000   0.000      0      0      0       0       0  16.000   49.136
   15 178   102   101  63.998     4  1.249    942   2035      0   1119   3864   3864      0      0    0.0  0.000    888   0.00   0.00   1.00   0.18   0.00   0.00   0.00   1.00   2.20  375.0   0.00      0    888    235.5   0.00   0.00 1.0303   0.039   0.022   0.019   0.014   0.011   0.005   0.004   0.000   0.000      0      0      0       0       0  17.500   66.636
   15 179   103   102  65.172     4  1.229    942   2176      0   1124   4006   4006      0      0    0.0  0.000    888   0.00   0.00   1.00   0.00   0.00   0.00   0.00   1.00   2.20  375.0   0.00      0    888    235.5   0.00   0.00 1.0322   0.039   0.022   0.019   0.014   0.011   0.005   0.004   0.000   0.000      0      0      0       0       0  17.500   84.136
   15 180   104   103  65.943     4  1.212    942   2309      0   1127   4138   4138      0      0    0.0  0.000    888   0.00   0.00   1.00   0.00   0.00   0.00   0.00   1.00   2.20  375.0   0.00      0    888    235.5   0.00   0.00 1.0342   0.039   0.022   0.019   0.014   0.011   0.005   0.004   0.000   0.000      0      0      0       0       0  18.500  102.636
   15 181   105   104  66.786     4  1.193    942   2442      0   1131   4271   4271      0      0    0.0  0.000    888   0.00   0.00   1.00   0.00   0.00   0.00   0.00   1.00   2.20  375.0   0.00      0    888    235.5   0.00   0.00 1.0365   0.039   0.022   0.019   0.014   0.011   0.005   0.004   0.000   0.000      0      0      0       0       0  20.235  122.871
   15 182   106   105  67.635     4  1.174    942   2579      0   1135   4409   4409      0      0    0.0  0.000    888   0.00   0.00   1.00   0.00   0.00   0.00   0.00   1.00   2.20  375.0   0.00      0    888    235.5   0.00   0.00 1.0387   0.039   0.022   0.019   0.014   0.011   0.005   0.004   0.000   0.000      0      0      0       0       0  20.367  143.238
   15 183   107   106  68.518     4  1.154    942   2713      0   1138   4542   4542      0      0    0.0  0.000    888   0.00   0.00   1.00   0.00   0.00   0.00   0.00   1.00   2.20  375.0   0.00      0    888    235.5   0.00   0.00 1.0410   0.039   0.022   0.019   0.014   0.011   0.005   0.004   0.000   0.000      0      0      0       0       0  21.200  164.438
   15 184   108   107  69.425     4  1.133    942   2819      0   1139   4648   4648      0      0    0.0  0.000    888   0.00   0.00   1.00   0.00   0.00   0.00   0.00   1.00   2.20  375.0   0.00      0    888    235.5   0.00   0.00 1.0434   0.038   0.023   0.019   0.014   0.011   0.006   0.004   0.000   0.000      0      0      0       0       0  21.765  186.202
   15 185   109   108  70.245     5  1.111    942   2555    360   1138   4385   4744   6764   6764    5.3  0.076    888   0.00   0.00   1.00   0.00   0.00   0.00   0.00   1.00   2.00  375.0   0.00      0    888    235.5   0.00   0.00 1.0460   0.038   0.023   0.019   0.014   0.011   0.006   0.004   0.000   0.000      0      0      0       0       0  22.875    9.077
   15 186   110   109  70.880     5  1.110    942   2518    485   1137   4348   4832   6764   6764    7.2  0.100    888   0.00   0.00   1.15   0.00   0.00   0.00   0.00   1.00   1.79  375.0   0.00      0    888    235.5   0.00   0.00 1.0485   0.037   0.022   0.019   0.014   0.011   0.006   0.004   0.000   0.000      0      0      0       0       0  23.469   32.546
   15 187   111   110  71.483     5  1.107    942   2478    623   1136   4307   4930   6764   6764    9.2  0.126    888   0.00   0.00   1.00   0.00   0.00   0.00   0.00   1.00   1.62  375.0   0.00      0    888    235.5   0.00   0.00 1.0510   0.037   0.022   0.019   0.014   0.011   0.006   0.004   0.000   0.000      0      0      0       0       0  22.318   54.864
   15 188   112   111  72.106     5  1.102    942   2442    743   1133   4272   5015   6764   6764   11.0  0.148    888   0.00   0.00   1.08   0.00   0.00   0.00   0.00   1.00   1.42  375.0   0.00      0    888    235.5   0.00   0.00 1.0535   0.037   0.022   0.019   0.014   0.011   0.006   0.004   0.000   0.000      0      0      0       0       0  23.059   77.923
   15 189   113   112  72.565     5  1.094    942   2401    870   1131   4231   5101   6764   6764   12.9  0.171    888   0.00   0.00   1.00   0.00   0.00   0.00   0.00   1.00   1.29  375.0   0.00      0    888    235.5   0.00   0.00 1.0554   0.037   0.022   0.019   0.013   0.011   0.006   0.004   0.000   0.000      0      0      0       0       0  17.000   94.923
   15 190   114   113  72.930     5  1.088    942   2381    979   1128   4211   5190   6764   6764   14.5  0.189    888   0.00   0.00   1.00   0.00   0.00   0.00   0.00   1.00   1.18  375.0   0.00      0    888    235.5   0.00   0.00 1.0569   0.036   0.022   0.019   0.013   0.011   0.006   0.004   0.000   0.000      0      0      0       0       0  13.500  108.423
   15 191   115   114  73.322     5  1.082    942   2399   1085   1127   4228   5314   6764   6764   16.0  0.204    888   0.00   0.00   1.00   0.00   0.00   0.00   0.00   1.00   1.06  375.0   0.00      0    888    235.5   0.00   0.00 1.0585   0.036   0.022   0.019   0.013   0.011   0.006   0.004   0.000   0.000      0      0      0       0       0  14.500  122.923
   15 192   116   115  73.806     5  1.074    942   2402   1188   1126   4232   5419   6764   6764   17.6  0.219    888   0.00   0.00   1.00   0.00   0.00   0.00   0.00   1.00   0.91  375.0   0.00      0    888    235.5   0.00   0.00 1.0604   0.036   0.022   0.019   0.013   0.011   0.006   0.005   0.000   0.000      0      0      0       0       0  17.900  140.823
   15 193   117   116  74.346     5  1.064    942   2380   1307   1124   4209   5516   6764   6764   19.3  0.237    888   0.00   0.00   1.00   0.03   0.00   0.00   0.00   1.00   0.80  375.0   0.00      0    888    235.5   0.00   0.00 1.0626   0.036   0.022   0.019   0.013   0.011   0.006   0.005   0.000   0.000      0      0      0       0       0  19.964  160.787
   15 194   118   117  74.832     5  1.051    942   2363   1366   1116   4192   5559   6764   6764   20.2  0.246    888   0.00   0.00   1.00   0.53   0.00   0.00   0.00   1.00   0.75  375.0   0.00      0    888    235.5   0.00   0.00 1.0646   0.036   0.022   0.019   0.013   0.011   0.006   0.005   0.000   0.000      0      0      0       0       0  18.000  178.787
   15 195   119   118  75.373     5  1.029    942   2368   1416   1110   4197   5613   6764   6764   20.9  0.252    888   0.00   0.00   1.00   0.52   0.00   0.00   0.00   1.00   0.71  375.0   0.00      0    888    235.5   0.00   0.00 1.0668   0.035   0.022   0.018   0.013   0.011   0.006   0.005   0.000   0.000      0      0      0       0       0  20.000  198.787
   15 196   120   119  75.952     5  1.001    942   2391   1460   1105   4220   5680   6764   6764   21.6  0.257    888   0.00   0.00   1.00   0.49   0.00   0.00   0.00   1.00   0.67  375.0   0.00      0    888    235.5   0.00   0.00 1.0692   0.035   0.022   0.018   0.013   0.011   0.006   0.005   0.000   0.000      0      0      0       0       0  21.455  220.242
   15 197   121   120  76.528     5  0.969    942   2415   1497   1099   4244   5741   6764   6764   22.1  0.261    888   0.00   0.02   1.00   0.50   0.00   0.00   0.00   1.00   0.64  375.0   0.00      0    888    235.5   0.00   0.00 1.0715   0.035   0.022   0.018   0.013   0.011   0.006   0.005   0.000   0.000      0      0      0       0       0  21.306  241.547
   15 198   122   121  77.140     5  0.934    942   2437   1533   1094   4267   5799   6764   6764   22.7  0.264    888   0.00   0.10   1.23   0.38   0.00   0.00   0.00   1.00   0.61  375.0   0.00      0    888    235.5   0.00   0.00 1.0740   0.035   0.021   0.018   0.013   0.011   0.006   0.005   0.000   0.000      0      0      0       0       0  22.639  264.186
   15 199   123   122  77.713     5  0.897    942   2458   1567   1088   4288   5854   6764   6764   23.2  0.268    888   0.00   0.16   1.00   0.28   0.00   0.00   0.00   1.00   0.58  375.0   0.00      0    888    235.5   0.00   0.00 1.0763   0.034   0.021   0.018   0.013   0.010   0.006   0.005   0.000   0.000      0      0      0       0       0  21.200  285.386
   15 200   124   123  78.303     5  0.863    942   2477   1600   1083   4307   5907   6764   6764   23.7  0.271    888   0.00   0.20   1.00   0.11   0.00   0.00   0.00   1.00   0.56  375.0   0.00      0    888    235.5   0.00   0.00 1.0788   0.034   0.021   0.018   0.013   0.010   0.006   0.005   0.000   0.000      0      0      0       0       0  21.833  307.220
   15 201   125   124  78.919     5  0.836    942   2501   1631   1077   4330   5961   6764   6764   24.1  0.274    888   0.00   0.24   1.00   0.00   0.00   0.00   0.00   1.00   0.53  375.0   0.00      0    888    235.5   0.00   0.00 1.0813   0.034   0.021   0.018   0.013   0.010   0.006   0.005   0.000   0.000      0      0      0       0       0  22.800  330.020
   15 202   126   125  79.538     5  0.805    942   2527   1659   1072   4357   6015   6764   6764   24.5  0.276    888   0.00   0.27   1.17   0.00   0.00   0.00   0.00   1.00   0.51  375.0   0.00      0    888    235.5   0.00   0.00 1.0838   0.033   0.021   0.018   0.013   0.010   0.006   0.005   0.000   0.000      0      0      0       0       0  22.875  352.895
   15 203   127   126  80.154     5  0.767    942   2542   1689   1067   4372   6060   6764   6764   25.0  0.279    888   0.00   0.31   1.68   0.00   0.00   0.00   0.00   1.00   0.50  375.0   0.00      0    888    235.5   0.00   0.00 1.0863   0.033   0.021   0.018   0.013   0.010   0.006   0.005   0.000   0.000      0      0      0       0       0  22.816  375.710
   15 204   128   127  80.722     5  0.709    942   2544   1723   1060   4374   6096   6764   6764   25.5  0.283    888   0.00   0.36   1.00   0.00   0.00   0.00   0.00   1.00   0.48  375.0   0.00      0    888    235.5   0.00   0.00 1.0886   0.033   0.021   0.018   0.012   0.010   0.006   0.005   0.000   0.000      0      0      0       0       0  21.000  396.710
   15 205   129   128  81.295     5  0.675    942   2550   1761   1054   4379   6140   6764   6764   26.0  0.287    888   0.00   0.37   1.00   0.00   0.00   0.00   0.00   1.00   0.47  375.0   0.00      0    888    235.5   0.00   0.00 1.0909   0.032   0.021   0.017   0.012   0.010   0.006   0.005   0.000   0.000      0      0      0       0       0  21.200  417.910
   15 206   130   129  81.795     5  0.639    942   2557   1799   1049   4386   6186   6764   6764   26.6  0.291    888   0.00   0.41   1.00   0.00   0.00   0.00   0.00   1.00   0.45  375.0   0.00      0    888    235.5   0.00   0.00 1.0930   0.032   0.020   0.017   0.012   0.010   0.006   0.005   0.000   0.000      0      0      0       0       0  18.500  436.410
   15 207   131   130  82.214     5  0.606    942   2571   1835   1044   4400   6236   6764   6764   27.1  0.294    888   0.00   0.43   1.00   0.00   0.00   0.00   0.00   1.00   0.44  375.0   0.00      0    888    235.5   0.00   0.00 1.0947   0.032   0.020   0.017   0.012   0.010   0.005   0.004   0.000   0.000      0      0      0       0       0  15.500  451.910
   15 208   132   131  82.687     5  0.578    942   2574   1871   1038   4403   6274   6764   6764   27.7  0.298    888   0.00   0.37   1.00   0.00   0.00   0.00   0.00   1.00   0.43  375.0   0.00      0    888    235.5   0.00   0.00 1.0966   0.031   0.020   0.017   0.012   0.010   0.005   0.004   0.000   0.000      0      0      0       0       0  17.500  469.410
   15 209   133   132  83.146     5  0.545    942   2571   1906   1031   4401   6307   6764   6764   28.2  0.302    888   0.00   0.36   1.00   0.00   0.00   0.00   0.00   1.00   0.42  375.0   0.00      0    888    235.5   0.00   0.00 1.0985   0.031   0.020   0.017   0.012   0.010   0.005   0.004   0.000   0.000      0      0      0       0       0  17.000  486.410
   15 210   134   133  83.538     5  0.511    942   2562   1941   1024   4391   6332   6764   6764   28.7  0.307    888   0.00   0.34   1.00   0.00   0.00   0.00   0.00   1.00   0.41  375.0   0.00      0    888    235.5   0.00   0.00 1.1001   0.031   0.020   0.017   0.012   0.010   0.005   0.004   0.000   0.000      0      0      0       0       0  14.500  500.910
   15 211   135   134  83.916     5  0.482    942   2561   1976   1017   4390   6366   6764   6764   29.2  0.310    888   0.00   0.39   1.00   0.00   0.00   0.00   0.00   1.00   0.40  375.0   0.00      0    888    235.5   0.00   0.00 1.1016   0.031   0.020   0.017   0.012   0.010   0.005   0.004   0.000   0.000      0      0      0       0       0  14.000  514.910
   15 212   136   135  84.349     5  0.452    942   2560   2011   1011   4389   6400   6764   6764   29.7  0.314    888   0.00   0.45   1.00   0.00   0.00   0.00   0.00   1.00   0.39  375.0   0.00      0    888    235.5   0.00   0.00 1.1034   0.030   0.020   0.017   0.012   0.010   0.005   0.004   0.000   0.000      0      0      0       0       0  16.000  530.910
   15 213   137   136  84.795     5  0.418    942   2542   2047   1003   4371   6418   6764   6764   30.3  0.319    888   0.00   0.50   1.00   0.00   0.00   0.00   0.00   1.00   0.38  375.0   0.00      0    888    235.5   0.00   0.00 1.1052   0.030   0.020   0.016   0.012   0.010   0.005   0.004   0.000   0.000      0      0      0       0       0  16.500  547.410
   15 214   138   137  85.295     5  0.381    942   2525   2086    995   4355   6441   6764   6764   30.8  0.324    888   0.00   0.53   1.00   0.00   0.00   0.00   0.00   1.00   0.37  375.0   0.00      0    888    235.5   0.00   0.00 1.1072   0.030   0.019   0.016   0.012   0.010   0.005   0.004   0.000   0.000      0      0      0       0       0  18.500  565.910
   15 215   139   138  85.819     5  0.339    942   2507   2128    988   4336   6464   6764   6764   31.5  0.329    888   0.00   0.54   1.00   0.00   0.00   0.00   0.00   1.00   0.36  375.0   0.00      0    888    235.5   0.00   0.00 1.1093   0.030   0.019   0.016   0.012   0.010   0.005   0.004   0.000   0.000      0      0      0       0       0  19.382  585.293
   15 216   140   139  86.382     5  0.293    942   2477   2174    980   4307   6480   6764   6764   32.1  0.335    888   0.00   0.56   1.16   0.00   0.00   0.00   0.00   1.00   0.34  375.0   0.00      0    888    235.5   0.00   0.00 1.1116   0.029   0.019   0.016   0.011   0.009   0.005   0.004   0.000   0.000      0      0      0       0       0  20.842  606.135
   15 217   141   140  86.942     5  0.233    942   2444   2221    971   4274   6495   6764   6764   32.8  0.342    888   0.00   0.57   1.00   0.03   0.00   0.00   0.00   1.00   0.33  375.0   0.00      0    888    235.5   0.00   0.00 1.1139   0.029   0.019   0.016   0.011   0.009   0.005   0.004   0.000   0.000      0      0      0       0       0  20.719  626.854
   15 218   142   141  87.531     5  0.181    942   2405   2270    963   4235   6505   6764   6764   33.6  0.349    888   0.00   0.58   1.81   0.07   0.00   0.00   0.00   1.00   0.32  375.0   0.00      0    888    235.5   0.00   0.00 1.1163   0.029   0.019   0.016   0.011   0.009   0.005   0.004   0.000   0.000      0      0      0       0       0  21.775  648.629
   15 219   143   142  88.140     5  0.077    942   2357   2322    953   4187   6509   6764   6764   34.3  0.357    888   0.00   0.59   2.43   0.10   0.00   0.00   0.00   1.00   0.31  375.0   0.00      0    888    235.5   0.00   0.00 1.1188   0.028   0.019   0.016   0.011   0.009   0.005   0.004   0.000   0.000      0      0      0       0       0  22.551  671.180
   15 220   144   143  88.757     5  0.000    942   2357   2322    944   4187   6509   6764   6764   34.3  0.357    888   0.00   0.60   2.16   0.14   0.00   0.00   0.00   1.00   0.31  375.0   0.00      0    888    235.5   0.00   0.00 1.1213   0.028   0.018   0.016   0.011   0.009   0.005   0.004   0.000   0.000      0      0      0       0       0  22.816  693.995
   15 221   145   144  89.380     5  0.000    942   2358   2322    935   4187   6509   6764   6764   34.3  0.357    888   0.00   0.60   1.86   0.00   0.00   0.00   0.00   1.00   0.31  375.0   0.00      0    888    235.5   0.00   0.00 1.1238   0.028   0.018   0.015   0.011   0.009   0.005   0.004   0.000   0.000      0      0      0       0       0  23.059  717.054
   15 222   146   145  89.998     5  0.000    942   2358   2322    925   4188   6510   6764   6764   34.3  0.357    888   0.00   0.60   1.00   0.00   0.00   0.00   0.00   1.00   0.31  375.0   0.00      0    888    235.5   0.00   0.00 1.1263   0.028   0.018   0.015   0.011   0.009   0.005   0.004   0.000   0.000      0      0      0       0       0  22.885  739.939
   15 223   147   146  90.000     6  0.000    942   2358   2322    916   4188   6510   6764   6764   34.3  0.357    888   0.00   0.60   1.29   0.00   0.00   0.00   0.00   1.00   0.31  375.0   0.00      0    888    235.5   0.00   0.00 1.1263   0.027   0.018   0.015   0.011   0.009   0.005   0.004   0.000   0.000      0      0      0       0       0  22.667   22.606
   15 224   148   147  90.000     7  0.000    942   2358   2322    916   4188   6510   6764   6764   34.3  0.357    888   0.00   0.60   1.29   0.00   0.00   0.00   0.00   1.00   0.31  375.0   0.00      0    888    235.5   0.00   0.00 1.1263   0.027   0.018   0.015   0.011   0.009   0.005   0.004   0.000   0.000      0      0      0       0       0  22.211    7.000
