*Soil Organic Matter daily output file

*DSSAT Cropping System Model Ver. 4.8.5.000 -release  OCT 27, 2025 22:35:44

*RUN   1        : 1                         WHAPS048 TUDU1501    1
 MODEL          : WHAPS048 - Wheat
 EXPERIMENT     : TUDU1501 WH
 DATA PATH      :
 TREATMENT  1   : 1                         WHAPS048
  
@YEAR DOY   DAS    OMAC    SCDD    SOCD    SC0D    SCTD   SOMCT    LCTD    ONAC    SNDD    SOND    SN0D    SNTD   SOMNT    LNTD
   15 076     0       0   31671  264376       0  264376  263496   880.0    0.00  1068.9 15356.1    0.00 15356.1 15342.1   14.00
   15 077     1       0   31991  264364       0  264364  263494   869.3    0.00  1079.1 15356.2    0.00 15356.2 15342.0   14.19
   15 078     2       0   31992  264354       0  264354  263493   860.4    0.00  1079.1 15356.2    0.00 15356.2 15341.9   14.34
   15 079     3       0   31992  264346       0  264346  263492   853.6    0.00  1079.1 15356.2    0.00 15356.2 15341.8   14.46
   15 080     4       0   31980  264340       0  264340  263492   848.8    0.00  1078.7 15356.2    0.00 15356.2 15341.7   14.53
   15 081     5       0   31980  264337       0  264337  263491   845.8    0.00  1078.7 15356.2    0.00 15356.2 15341.6   14.58
   15 082     6       0   31980  264336       0  264336  263491   845.2    0.00  1078.7 15356.2    0.00 15356.2 15341.6   14.59
   15 083     7       0   31980  264336       0  264336  263491   845.2    0.00  1078.7 15356.2    0.00 15356.2 15341.6   14.59
   15 084     8       0   31980  264336       0  264336  263491   845.1    0.00  1078.7 15356.2    0.00 15356.2 15341.6   14.59
   15 085     9       0   31980  264335       0  264335  263491   844.7    0.00  1078.7 15356.2    0.00 15356.2 15341.6   14.60
   15 086    10       0   31975  264335       0  264335  263491   844.1    0.00  1078.5 15356.2    0.00 15356.2 15341.6   14.61
   15 087    11       0   31975  264333       0  264333  263490   842.8    0.00  1078.5 15356.2    0.00 15356.2 15341.5   14.63
   15 088    12       0   31975  264330       0  264330  263490   840.6    0.00  1078.5 15356.1    0.00 15356.1 15341.5   14.67
   15 089    13       0   31937  264327       0  264327  263489   837.6    0.00  1077.3 15356.1    0.00 15356.1 15341.4   14.71
   15 090    14       0   31923  264324       0  264324  263489   834.9    0.00  1076.9 15356.1    0.00 15356.1 15341.4   14.75
   15 091    15       0   31909  264320       0  264320  263488   831.8    0.00  1076.4 15356.1    0.00 15356.1 15341.3   14.80
   15 092    16       0   31892  264318       0  264318  263488   829.8    0.00  1075.9 15356.1    0.00 15356.1 15341.3   14.83
   15 093    17       0   31892  264317       0  264317  263488   828.9    0.00  1075.9 15356.1    0.00 15356.1 15341.3   14.84
   15 094    18       0   31876  264317       0  264317  263488   828.8    0.00  1075.4 15356.1    0.00 15356.1 15341.3   14.84
   15 095    19       0   31876  264317       0  264317  263488   828.8    0.00  1075.4 15356.1    0.00 15356.1 15341.3   14.84
   15 096    20       0   31876  264317       0  264317  263488   828.8    0.00  1075.4 15356.1    0.00 15356.1 15341.3   14.84
   15 097    21       0   31876  264317       0  264317  263488   828.8    0.00  1075.4 15356.1    0.00 15356.1 15341.3   14.84
   15 098    22       0   31876  264317       0  264317  263488   828.8    0.00  1075.4 15356.1    0.00 15356.1 15341.3   14.84
   15 099    23       0   31876  264317       0  264317  263488   828.8    0.00  1075.4 15356.1    0.00 15356.1 15341.3   14.84
   15 100    24       0   31876  264317       0  264317  263488   828.8    0.00  1075.4 15356.1    0.00 15356.1 15341.2   14.84
   15 101    25       0   31876  264314       0  264314  263487   826.5    0.00  1075.4 15356.1    0.00 15356.1 15341.2   14.88
   15 102    26       0   31876  264308       0  264308  263486   821.3    0.00  1075.4 15356.1    0.00 15356.1 15341.1   14.95
   15 103    27       0   31876  264299       0  264299  263485   813.8    0.00  1075.4 15356.0    0.00 15356.0 15341.0   15.05
   15 104    28       0   31876  264288       0  264288  263483   805.1    0.00  1075.4 15356.0    0.00 15356.0 15340.8   15.17
   15 105    29       0   31876  264277       0  264277  263481   796.3    0.00  1075.4 15355.9    0.00 15355.9 15340.6   15.28
   15 106    30       0   31876  264266       0  264266  263479   787.2    0.00  1075.3 15355.8    0.00 15355.8 15340.4   15.39
   15 107    31       0   31801  264254       0  264254  263476   777.7    0.00  1073.0 15355.7    0.00 15355.7 15340.2   15.50
   15 108    32       0   31801  264241       0  264241  263474   767.1    0.00  1073.0 15355.6    0.00 15355.6 15340.0   15.60
   15 109    33       0   31801  264230       0  264230  263472   757.6    0.00  1073.0 15355.6    0.00 15355.6 15339.9   15.69
   15 110    34       0   31802  264220       0  264220  263470   749.8    0.00  1073.0 15355.5    0.00 15355.5 15339.7   15.75
   15 111    35       0   31802  264213       0  264213  263469   744.1    0.00  1073.0 15355.4    0.00 15355.4 15339.6   15.80
   15 112    36       0   31802  264208       0  264208  263468   740.0    0.00  1072.9 15355.4    0.00 15355.4 15339.5   15.83
   15 113    37       0   31802  264203       0  264203  263467   736.2    0.00  1072.9 15355.3    0.00 15355.3 15339.5   15.85
   15 114    38       0   31802  264198       0  264198  263466   732.3    0.00  1072.9 15355.2    0.00 15355.2 15339.4   15.88
   15 115    39       0   31799  264193       0  264193  263465   727.8    0.00  1072.9 15355.2    0.00 15355.2 15339.3   15.91
   15 116    40       0   31797  264186       0  264186  263463   722.8    0.00  1072.8 15355.1    0.00 15355.1 15339.1   15.94
   15 117    41       0   31785  264178       0  264178  263461   716.7    0.00  1072.4 15355.0    0.00 15355.0 15339.0   15.98
   15 118    42       0   31773  264168       0  264168  263459   709.1    0.00  1072.0 15354.8    0.00 15354.8 15338.8   16.02
   15 119    43       0   31773  264158       0  264158  263457   700.8    0.00  1072.0 15354.7    0.00 15354.7 15338.6   16.06
   15 120    44       0   31771  264148       0  264148  263455   693.0    0.00  1072.0 15354.6    0.00 15354.6 15338.5   16.09
   15 121    45       0   31728  264138       0  264138  263453   685.5    0.00  1070.6 15354.4    0.00 15354.4 15338.3   16.11
   15 122    46       0   31727  264132       0  264132  263451   680.7    0.00  1070.5 15354.3    0.00 15354.3 15338.2   16.13
   15 123    47       0   31674  264126       0  264126  263450   676.5    0.00  1068.8 15354.2    0.00 15354.2 15338.1   16.14
   15 124    48       0   31673  264120       0  264120  263448   671.7    0.00  1068.8 15354.1    0.00 15354.1 15338.0   16.15
   15 125    49       0   31673  264109       0  264109  263445   664.1    0.00  1068.8 15353.9    0.00 15353.9 15337.8   16.16
   15 126    50       0   31673  264097       0  264097  263442   654.9    0.00  1068.8 15353.7    0.00 15353.7 15337.6   16.17
   15 127    51       0   31673  264085       0  264085  263438   646.7    0.00  1068.8 15353.5    0.00 15353.5 15337.3   16.18
   15 128    52       0   31673  264072       0  264072  263434   637.2    0.00  1068.8 15353.2    0.00 15353.2 15337.0   16.18
   15 129    53       0   31673  264057       0  264057  263430   627.2    0.00  1068.8 15352.9    0.00 15352.9 15336.7   16.17
   15 130    54       0   31673  264044       0  264044  263426   618.1    0.00  1068.8 15352.6    0.00 15352.6 15336.5   16.16
   15 131    55       0   31672  264033       0  264033  263423   610.3    0.00  1068.8 15352.4    0.00 15352.4 15336.3   16.14
   15 132    56       0   31672  264022       0  264022  263419   602.8    0.00  1068.8 15352.1    0.00 15352.1 15336.0   16.12
   15 133    57       0   31672  264010       0  264010  263415   595.1    0.00  1068.8 15351.8    0.00 15351.8 15335.7   16.09
   15 134    58       0   31671  263997       0  263997  263410   586.7    0.00  1068.7 15351.5    0.00 15351.5 15335.4   16.06
   15 135    59       0   31671  263985       0  263985  263406   579.1    0.00  1068.7 15351.2    0.00 15351.2 15335.1   16.03
   15 136    60       0   31671  263973       0  263973  263401   572.0    0.00  1068.7 15350.8    0.00 15350.8 15334.8   15.99
   15 137    61       0   31670  263962       0  263962  263397   565.3    0.00  1068.7 15350.5    0.00 15350.5 15334.6   15.95
   15 138    62       0   31670  263952       0  263952  263392   559.3    0.00  1068.7 15350.2    0.00 15350.2 15334.3   15.91
   15 139    63       0   31669  263942       0  263942  263388   554.0    0.00  1068.7 15349.9    0.00 15349.9 15334.1   15.88
   15 140    64       0   31669  263933       0  263933  263385   548.2    0.00  1068.7 15349.7    0.00 15349.7 15333.8   15.84
   15 141    65       0   31669  263924       0  263924  263381   543.1    0.00  1068.6 15349.4    0.00 15349.4 15333.6   15.80
   15 142    66       0   31668  263916       0  263916  263378   538.2    0.00  1068.6 15349.1    0.00 15349.1 15333.4   15.76
   15 143    67       0   31668  263908       0  263908  263375   533.6    0.00  1068.6 15348.9    0.00 15348.9 15333.2   15.72
   15 144    68       0   31668  263902       0  263902  263372   529.7    0.00  1068.6 15348.7    0.00 15348.7 15333.0   15.68
   15 145    69       0   31668  263896       0  263896  263370   526.0    0.00  1068.6 15348.5    0.00 15348.5 15332.9   15.65
   15 146    70       0   31668  263888       0  263888  263367   521.6    0.00  1068.6 15348.3    0.00 15348.3 15332.7   15.61
   15 147    71       0   31667  263880       0  263880  263363   517.0    0.00  1068.6 15348.1    0.00 15348.1 15332.5   15.56
   15 148    72       0   31667  263873       0  263873  263360   512.5    0.00  1068.6 15347.8    0.00 15347.8 15332.3   15.51
   15 149    73       0   31667  263865       0  263865  263357   507.9    0.00  1068.6 15347.6    0.00 15347.6 15332.1   15.47
   15 150    74       0   31667  263856       0  263856  263353   503.0    0.00  1068.6 15347.3    0.00 15347.3 15331.9   15.41
   15 151    75       0   31666  263848       0  263848  263349   498.2    0.00  1068.5 15347.0    0.00 15347.0 15331.6   15.36
   15 152    76       0   31666  263838       0  263838  263345   493.0    0.00  1068.5 15346.7    0.00 15346.7 15331.4   15.30
   15 153    77       0   31665  263827       0  263827  263340   486.6    0.00  1068.5 15346.3    0.00 15346.3 15331.1   15.22
   15 154    78       0   31665  263814       0  263814  263335   479.7    0.00  1068.5 15345.9    0.00 15345.9 15330.7   15.13
   15 155    79       0   31664  263801       0  263801  263328   472.6    0.00  1068.5 15345.4    0.00 15345.4 15330.4   15.04
   15 156    80       0   31664  263787       0  263787  263321   465.7    0.00  1068.5 15344.9    0.00 15344.9 15330.0   14.95
   15 157    81       0   31663  263773       0  263773  263314   458.9    0.00  1068.4 15344.4    0.00 15344.4 15329.5   14.85
   15 158    82       0   31662  263758       0  263758  263306   451.7    0.00  1068.4 15343.8    0.00 15343.8 15329.1   14.75
   15 159    83       0   31661  263744       0  263744  263299   445.3    0.00  1068.4 15343.3    0.00 15343.3 15328.6   14.65
   15 160    84       0   31661  263728       0  263728  263292   436.7    0.00  1068.4 15342.7    0.00 15342.7 15328.2   14.51
   15 161    85       0   31660  263714       0  263714  263285   428.9    0.00  1068.3 15342.2    0.00 15342.2 15327.8   14.38
   15 162    86       0   31660  263701       0  263701  263279   422.2    0.00  1068.3 15341.7    0.00 15341.7 15327.4   14.26
   15 163    87       0   31659  263690       0  263690  263274   416.1    0.00  1068.3 15341.2    0.00 15341.2 15327.1   14.16
   15 164    88       0   31659  263678       0  263678  263268   410.5    0.00  1068.3 15340.8    0.00 15340.8 15326.8   14.05
   15 165    89       0   31658  263667       0  263667  263262   404.7    0.00  1068.3 15340.3    0.00 15340.3 15326.4   13.94
   15 166    90       0   31657  263654       0  263654  263255   398.7    0.00  1068.2 15339.8    0.00 15339.8 15326.0   13.83
   15 167    91       0   31657  263641       0  263641  263248   392.8    0.00  1068.2 15339.3    0.00 15339.3 15325.6   13.71
   15 168    92       0   31656  263628       0  263628  263241   386.4    0.00  1068.2 15338.8    0.00 15338.8 15325.2   13.59
   15 169    93       0   31655  263616       0  263616  263235   380.4    0.00  1068.2 15338.3    0.00 15338.3 15324.8   13.46
   15 170    94       0   31655  263605       0  263605  263230   375.6    0.00  1068.2 15337.9    0.00 15337.9 15324.5   13.36
   15 171    95       0   31654  263596       0  263596  263225   371.2    0.00  1068.1 15337.5    0.00 15337.5 15324.2   13.27
   15 172    96       0   31654  263587       0  263587  263220   367.0    0.00  1068.1 15337.1    0.00 15337.1 15324.0   13.18
   15 173    97       0   31653  263579       0  263579  263216   362.9    0.00  1068.1 15336.8    0.00 15336.8 15323.7   13.09
   15 174    98       0   31653  263570       0  263570  263211   359.2    0.00  1068.1 15336.4    0.00 15336.4 15323.4   13.01
   15 175    99       0   31652  263562       0  263562  263207   355.5    0.00  1068.1 15336.1    0.00 15336.1 15323.2   12.92
   15 176   100       0   31652  263554       0  263554  263202   351.6    0.00  1068.1 15335.7    0.00 15335.7 15322.9   12.83
   15 177   101       0   31651  263545       0  263545  263197   347.5    0.00  1068.1 15335.3    0.00 15335.3 15322.6   12.74
   15 178   102       0   31651  263535       0  263535  263192   343.4    0.00  1068.0 15334.9    0.00 15334.9 15322.3   12.64
   15 179   103       0   31650  263526       0  263526  263186   339.6    0.00  1068.0 15334.5    0.00 15334.5 15322.0   12.55
   15 180   104       0   31650  263516       0  263516  263180   335.6    0.00  1068.0 15334.1    0.00 15334.1 15321.6   12.46
   15 181   105       0   31649  263505       0  263505  263174   331.5    0.00  1068.0 15333.6    0.00 15333.6 15321.2   12.36
   15 182   106       0   31648  263494       0  263494  263167   327.5    0.00  1068.0 15333.1    0.00 15333.1 15320.8   12.26
   15 183   107       0   31647  263483       0  263483  263159   323.7    0.00  1067.9 15332.6    0.00 15332.6 15320.4   12.17
   15 184   108       0   31647  263472       0  263472  263151   320.1    0.00  1067.9 15332.0    0.00 15332.0 15319.9   12.08
   15 185   109       0   31646  263460       0  263460  263144   316.8    0.00  1067.9 15331.5    0.00 15331.5 15319.5   12.00
   15 186   110       0   31645  263449       0  263449  263136   313.7    0.00  1067.9 15330.9    0.00 15330.9 15319.0   11.92
   15 187   111       0   31645  263438       0  263438  263128   310.8    0.00  1067.8 15330.3    0.00 15330.3 15318.5   11.84
   15 188   112       0   31644  263428       0  263428  263120   308.2    0.00  1067.8 15329.8    0.00 15329.8 15318.0   11.78
   15 189   113       0   31643  263417       0  263417  263112   305.0    0.00  1067.8 15329.2    0.00 15329.2 15317.5   11.69
   15 190   114       0   31643  263406       0  263406  263104   301.2    0.00  1067.8 15328.6    0.00 15328.6 15317.0   11.60
   15 191   115       0   31642  263396       0  263396  263098   298.2    0.00  1067.8 15328.1    0.00 15328.1 15316.6   11.52
   15 192   116       0   31641  263388       0  263388  263092   295.9    0.00  1067.7 15327.7    0.00 15327.7 15316.3   11.45
   15 193   117       0   31641  263381       0  263381  263087   294.0    0.00  1067.7 15327.3    0.00 15327.3 15315.9   11.41
   15 194   118       0   31641  263375       0  263375  263082   292.7    0.00  1067.7 15327.0    0.00 15327.0 15315.6   11.37
   15 195   119       0   31640  263369       0  263369  263078   291.3    0.00  1067.7 15326.7    0.00 15326.7 15315.4   11.33
   15 196   120       0   31640  263363       0  263363  263073   290.0    0.00  1067.7 15326.3    0.00 15326.3 15315.0   11.29
   15 197   121       0   31639  263356       0  263356  263068   288.7    0.00  1067.7 15326.0    0.00 15326.0 15314.7   11.26
   15 198   122       0   31639  263350       0  263350  263063   287.4    0.00  1067.7 15325.6    0.00 15325.6 15314.4   11.23
   15 199   123       0   31639  263344       0  263344  263057   286.3    0.00  1067.6 15325.2    0.00 15325.2 15314.0   11.20
   15 200   124       0   31638  263338       0  263338  263052   285.4    0.00  1067.6 15324.8    0.00 15324.8 15313.7   11.17
   15 201   125       0   31638  263332       0  263332  263047   284.5    0.00  1067.6 15324.4    0.00 15324.4 15313.3   11.14
   15 202   126       0   31637  263326       0  263326  263042   283.7    0.00  1067.6 15324.1    0.00 15324.1 15312.9   11.12
   15 203   127       0   31637  263320       0  263320  263037   283.0    0.00  1067.6 15323.7    0.00 15323.7 15312.6   11.10
   15 204   128       0   31637  263314       0  263314  263032   282.4    0.00  1067.6 15323.3    0.00 15323.3 15312.2   11.08
   15 205   129       0   31636  263309       0  263309  263027   281.7    0.00  1067.6 15323.0    0.00 15323.0 15311.9   11.06
   15 206   130       0   31636  263303       0  263303  263022   281.0    0.00  1067.6 15322.6    0.00 15322.6 15311.6   11.05
   15 207   131       0   31635  263298       0  263298  263018   280.5    0.00  1067.5 15322.3    0.00 15322.3 15311.2   11.03
   15 208   132       0   31635  263294       0  263294  263014   280.0    0.00  1067.5 15322.0    0.00 15322.0 15311.0   11.02
   15 209   133       0   31635  263289       0  263289  263010   279.3    0.00  1067.5 15321.7    0.00 15321.7 15310.7   10.99
   15 210   134       0   31634  263285       0  263285  263006   278.5    0.00  1067.5 15321.4    0.00 15321.4 15310.4   10.97
   15 211   135       0   31634  263281       0  263281  263003   277.8    0.00  1067.5 15321.1    0.00 15321.1 15310.2   10.95
   15 212   136       0   31634  263277       0  263277  263000   277.2    0.00  1067.5 15320.9    0.00 15320.9 15310.0   10.93
   15 213   137       0   31634  263273       0  263273  262997   276.7    0.00  1067.5 15320.7    0.00 15320.7 15309.7   10.92
   15 214   138       0   31633  263270       0  263270  262994   276.3    0.00  1067.5 15320.4    0.00 15320.4 15309.5   10.90
   15 215   139       0   31633  263266       0  263266  262990   275.8    0.00  1067.5 15320.2    0.00 15320.2 15309.3   10.89
   15 216   140       0   31633  263263       0  263263  262987   275.4    0.00  1067.4 15319.9    0.00 15319.9 15309.1   10.88
   15 217   141       0   31633  263259       0  263259  262984   275.0    0.00  1067.4 15319.7    0.00 15319.7 15308.8   10.87
   15 218   142       0   31632  263254       0  263254  262980   274.6    0.00  1067.4 15319.4    0.00 15319.4 15308.5   10.85
   15 219   143       0   31632  263250       0  263250  262976   274.2    0.00  1067.4 15319.1    0.00 15319.1 15308.2   10.84
   15 220   144       0   31632  263245       0  263245  262971   273.9    0.00  1067.4 15318.8    0.00 15318.8 15307.9   10.83
   15 221   145       0   31631  263240       0  263240  262967   273.3    0.00  1067.4 15318.4    0.00 15318.4 15307.6   10.81
   15 222   146       0   31631  263235       0  263235  262962   272.9    0.00  1067.4 15318.1    0.00 15318.1 15307.3   10.80
   15 223   147       0   31630  263229       0  263229  262957   272.4    0.00  1067.4 15317.7    0.00 15317.7 15306.9   10.78
   15 224   148       0   31630  263224       0  263224  262952   272.0    0.00  1067.3 15317.3    0.00 15317.3 15306.6   10.77

*DSSAT Cropping System Model Ver. 4.8.5.000 -release  OCT 27, 2025 22:35:44

*RUN   2        : 2                         WHAPS048 TUDU1501    2
 MODEL          : WHAPS048 - Wheat
 EXPERIMENT     : TUDU1501 WH
 DATA PATH      :
 TREATMENT  2   : 2                         WHAPS048
  
@YEAR DOY   DAS    OMAC    SCDD    SOCD    SC0D    SCTD   SOMCT    LCTD    ONAC    SNDD    SOND    SN0D    SNTD   SOMNT    LNTD
   15 076     0       0   31671  264376       0  264376  263496   880.0    0.00  1068.9 15356.1    0.00 15356.1 15342.1   14.00
   15 077     1       0   31991  264364       0  264364  263494   869.3    0.00  1079.1 15356.2    0.00 15356.2 15342.0   14.19
   15 078     2       0   31992  264354       0  264354  263493   860.4    0.00  1079.1 15356.2    0.00 15356.2 15341.9   14.34
   15 079     3       0   31992  264346       0  264346  263492   853.6    0.00  1079.1 15356.2    0.00 15356.2 15341.8   14.46
   15 080     4       0   31980  264340       0  264340  263492   848.8    0.00  1078.7 15356.2    0.00 15356.2 15341.7   14.53
   15 081     5       0   31980  264337       0  264337  263491   845.8    0.00  1078.7 15356.2    0.00 15356.2 15341.6   14.58
   15 082     6       0   31980  264336       0  264336  263491   845.2    0.00  1078.7 15356.2    0.00 15356.2 15341.6   14.59
   15 083     7       0   31980  264336       0  264336  263491   845.2    0.00  1078.7 15356.2    0.00 15356.2 15341.6   14.59
   15 084     8       0   31980  264336       0  264336  263491   845.1    0.00  1078.7 15356.2    0.00 15356.2 15341.6   14.59
   15 085     9       0   31980  264335       0  264335  263491   844.7    0.00  1078.7 15356.2    0.00 15356.2 15341.6   14.60
   15 086    10       0   31975  264335       0  264335  263491   844.1    0.00  1078.5 15356.2    0.00 15356.2 15341.6   14.61
   15 087    11       0   31975  264333       0  264333  263490   842.8    0.00  1078.5 15356.2    0.00 15356.2 15341.5   14.63
   15 088    12       0   31975  264330       0  264330  263490   840.6    0.00  1078.5 15356.1    0.00 15356.1 15341.5   14.67
   15 089    13       0   31937  264327       0  264327  263489   837.6    0.00  1077.3 15356.1    0.00 15356.1 15341.4   14.71
   15 090    14       0   31923  264324       0  264324  263489   834.9    0.00  1076.9 15356.1    0.00 15356.1 15341.4   14.75
   15 091    15       0   31909  264320       0  264320  263488   831.8    0.00  1076.4 15356.1    0.00 15356.1 15341.3   14.80
   15 092    16       0   31892  264318       0  264318  263488   829.8    0.00  1075.9 15356.1    0.00 15356.1 15341.3   14.83
   15 093    17       0   31892  264317       0  264317  263488   828.9    0.00  1075.9 15356.1    0.00 15356.1 15341.3   14.84
   15 094    18       0   31876  264317       0  264317  263488   828.8    0.00  1075.4 15356.1    0.00 15356.1 15341.3   14.84
   15 095    19       0   31876  264317       0  264317  263488   828.8    0.00  1075.4 15356.1    0.00 15356.1 15341.3   14.84
   15 096    20       0   31876  264317       0  264317  263488   828.8    0.00  1075.4 15356.1    0.00 15356.1 15341.3   14.84
   15 097    21       0   31876  264317       0  264317  263488   828.8    0.00  1075.4 15356.1    0.00 15356.1 15341.3   14.84
   15 098    22       0   31876  264317       0  264317  263488   828.8    0.00  1075.4 15356.1    0.00 15356.1 15341.3   14.84
   15 099    23       0   31876  264317       0  264317  263488   828.8    0.00  1075.4 15356.1    0.00 15356.1 15341.3   14.84
   15 100    24       0   31876  264317       0  264317  263488   828.8    0.00  1075.4 15356.1    0.00 15356.1 15341.2   14.84
   15 101    25       0   31876  264314       0  264314  263487   826.5    0.00  1075.4 15356.1    0.00 15356.1 15341.2   14.88
   15 102    26       0   31876  264308       0  264308  263486   821.3    0.00  1075.4 15356.1    0.00 15356.1 15341.1   14.95
   15 103    27       0   31876  264299       0  264299  263485   813.8    0.00  1075.4 15356.0    0.00 15356.0 15341.0   15.05
   15 104    28       0   31876  264288       0  264288  263483   805.1    0.00  1075.4 15356.0    0.00 15356.0 15340.8   15.17
   15 105    29       0   31876  264277       0  264277  263481   796.3    0.00  1075.4 15355.9    0.00 15355.9 15340.6   15.28
   15 106    30       0   31876  264266       0  264266  263479   787.2    0.00  1075.3 15355.8    0.00 15355.8 15340.4   15.39
   15 107    31       0   31801  264254       0  264254  263476   777.7    0.00  1073.0 15355.7    0.00 15355.7 15340.2   15.50
   15 108    32       0   31801  264241       0  264241  263474   767.1    0.00  1073.0 15355.6    0.00 15355.6 15340.0   15.60
   15 109    33       0   31801  264230       0  264230  263472   757.6    0.00  1073.0 15355.6    0.00 15355.6 15339.9   15.69
   15 110    34       0   31802  264220       0  264220  263470   749.8    0.00  1073.0 15355.5    0.00 15355.5 15339.7   15.75
   15 111    35       0   31802  264213       0  264213  263469   744.1    0.00  1073.0 15355.4    0.00 15355.4 15339.6   15.80
   15 112    36       0   31802  264208       0  264208  263468   740.0    0.00  1072.9 15355.4    0.00 15355.4 15339.5   15.83
   15 113    37       0   31802  264203       0  264203  263467   736.2    0.00  1072.9 15355.3    0.00 15355.3 15339.5   15.85
   15 114    38       0   31802  264198       0  264198  263466   732.3    0.00  1072.9 15355.2    0.00 15355.2 15339.4   15.88
   15 115    39       0   31799  264193       0  264193  263465   727.8    0.00  1072.9 15355.2    0.00 15355.2 15339.3   15.91
   15 116    40       0   31797  264186       0  264186  263463   722.8    0.00  1072.8 15355.1    0.00 15355.1 15339.1   15.94
   15 117    41       0   31785  264178       0  264178  263461   716.7    0.00  1072.4 15355.0    0.00 15355.0 15339.0   15.98
   15 118    42       0   31773  264168       0  264168  263459   709.1    0.00  1072.0 15354.8    0.00 15354.8 15338.8   16.02
   15 119    43       0   31773  264158       0  264158  263457   700.8    0.00  1072.0 15354.7    0.00 15354.7 15338.6   16.06
   15 120    44       0   31771  264148       0  264148  263455   693.0    0.00  1072.0 15354.6    0.00 15354.6 15338.5   16.09
   15 121    45       0   31728  264138       0  264138  263453   685.5    0.00  1070.6 15354.4    0.00 15354.4 15338.3   16.11
   15 122    46       0   31727  264132       0  264132  263451   680.7    0.00  1070.5 15354.3    0.00 15354.3 15338.2   16.13
   15 123    47       0   31674  264126       0  264126  263450   676.6    0.00  1068.8 15354.2    0.00 15354.2 15338.1   16.14
   15 124    48       0   31673  264120       0  264120  263448   671.7    0.00  1068.8 15354.1    0.00 15354.1 15338.0   16.15
   15 125    49       0   31673  264109       0  264109  263445   664.1    0.00  1068.8 15353.9    0.00 15353.9 15337.8   16.16
   15 126    50       0   31673  264097       0  264097  263442   654.8    0.00  1068.8 15353.7    0.00 15353.7 15337.6   16.17
   15 127    51       0   31673  264085       0  264085  263438   646.6    0.00  1068.8 15353.5    0.00 15353.5 15337.3   16.18
   15 128    52       0   31673  264071       0  264071  263434   637.0    0.00  1068.8 15353.2    0.00 15353.2 15337.0   16.18
   15 129    53       0   31673  264057       0  264057  263430   626.9    0.00  1068.8 15352.9    0.00 15352.9 15336.7   16.17
   15 130    54       0   31673  264044       0  264044  263426   617.8    0.00  1068.8 15352.6    0.00 15352.6 15336.5   16.15
   15 131    55       0   31672  264033       0  264033  263423   610.0    0.00  1068.8 15352.4    0.00 15352.4 15336.3   16.14
   15 132    56       0   31672  264022       0  264022  263419   602.5    0.00  1068.8 15352.1    0.00 15352.1 15336.0   16.12
   15 133    57       0   31672  264010       0  264010  263415   594.7    0.00  1068.8 15351.8    0.00 15351.8 15335.7   16.09
   15 134    58       0   31671  263997       0  263997  263411   586.4    0.00  1068.7 15351.5    0.00 15351.5 15335.4   16.06
   15 135    59       0   31671  263984       0  263984  263406   578.6    0.00  1068.7 15351.2    0.00 15351.2 15335.1   16.02
   15 136    60       0   31671  263973       0  263973  263401   571.6    0.00  1068.7 15350.8    0.00 15350.8 15334.9   15.99
   15 137    61       0   31670  263961       0  263961  263397   564.9    0.00  1068.7 15350.5    0.00 15350.5 15334.6   15.95
   15 138    62       0   31670  263951       0  263951  263392   558.9    0.00  1068.7 15350.2    0.00 15350.2 15334.3   15.91
   15 139    63       0   31669  263942       0  263942  263389   553.6    0.00  1068.7 15349.9    0.00 15349.9 15334.1   15.88
   15 140    64       0   31669  263932       0  263932  263385   547.7    0.00  1068.7 15349.7    0.00 15349.7 15333.8   15.83
   15 141    65       0   31669  263924       0  263924  263381   542.7    0.00  1068.6 15349.4    0.00 15349.4 15333.6   15.79
   15 142    66       0   31669  263915       0  263915  263378   537.8    0.00  1068.6 15349.1    0.00 15349.1 15333.4   15.75
   15 143    67       0   31668  263908       0  263908  263375   533.2    0.00  1068.6 15348.9    0.00 15348.9 15333.2   15.72
   15 144    68       0   31668  263901       0  263901  263372   529.3    0.00  1068.6 15348.7    0.00 15348.7 15333.0   15.68
   15 145    69       0   31668  263895       0  263895  263370   525.6    0.00  1068.6 15348.5    0.00 15348.5 15332.9   15.65
   15 146    70       0   31668  263888       0  263888  263367   521.2    0.00  1068.6 15348.3    0.00 15348.3 15332.7   15.60
   15 147    71       0   31667  263880       0  263880  263363   516.6    0.00  1068.6 15348.1    0.00 15348.1 15332.5   15.56
   15 148    72       0   31667  263872       0  263872  263360   512.1    0.00  1068.6 15347.8    0.00 15347.8 15332.3   15.51
   15 149    73       0   31667  263864       0  263864  263357   507.5    0.00  1068.6 15347.6    0.00 15347.6 15332.1   15.46
   15 150    74       0   31667  263856       0  263856  263353   502.6    0.00  1068.6 15347.3    0.00 15347.3 15331.9   15.41
   15 151    75       0   31666  263847       0  263847  263350   497.8    0.00  1068.5 15347.0    0.00 15347.0 15331.6   15.35
   15 152    76       0   31666  263838       0  263838  263345   492.6    0.00  1068.5 15346.7    0.00 15346.7 15331.4   15.29
   15 153    77       0   31665  263827       0  263827  263340   486.2    0.00  1068.5 15346.3    0.00 15346.3 15331.1   15.22
   15 154    78       0   31665  263814       0  263814  263335   479.3    0.00  1068.5 15345.9    0.00 15345.9 15330.7   15.13
   15 155    79       0   31664  263800       0  263800  263328   472.2    0.00  1068.5 15345.4    0.00 15345.4 15330.4   15.04
   15 156    80       0   31664  263787       0  263787  263321   465.3    0.00  1068.5 15344.9    0.00 15344.9 15330.0   14.94
   15 157    81       0   31663  263773       0  263773  263314   458.6    0.00  1068.4 15344.4    0.00 15344.4 15329.5   14.85
   15 158    82       0   31662  263758       0  263758  263306   451.4    0.00  1068.4 15343.8    0.00 15343.8 15329.1   14.74
   15 159    83       0   31662  263744       0  263744  263299   445.0    0.00  1068.4 15343.3    0.00 15343.3 15328.6   14.65
   15 160    84       0   31661  263728       0  263728  263292   436.4    0.00  1068.4 15342.7    0.00 15342.7 15328.2   14.51
   15 161    85       0   31660  263714       0  263714  263285   428.6    0.00  1068.3 15342.2    0.00 15342.2 15327.8   14.38
   15 162    86       0   31660  263701       0  263701  263279   421.9    0.00  1068.3 15341.7    0.00 15341.7 15327.4   14.26
   15 163    87       0   31659  263690       0  263690  263274   415.8    0.00  1068.3 15341.2    0.00 15341.2 15327.1   14.15
   15 164    88       0   31659  263678       0  263678  263268   410.2    0.00  1068.3 15340.8    0.00 15340.8 15326.8   14.05
   15 165    89       0   31658  263667       0  263667  263262   404.4    0.00  1068.3 15340.3    0.00 15340.3 15326.4   13.94
   15 166    90       0   31657  263654       0  263654  263255   398.5    0.00  1068.2 15339.8    0.00 15339.8 15326.0   13.82
   15 167    91       0   31657  263641       0  263641  263248   392.6    0.00  1068.2 15339.3    0.00 15339.3 15325.6   13.71
   15 168    92       0   31656  263628       0  263628  263242   386.2    0.00  1068.2 15338.8    0.00 15338.8 15325.2   13.58
   15 169    93       0   31655  263616       0  263616  263236   380.2    0.00  1068.2 15338.3    0.00 15338.3 15324.8   13.46
   15 170    94       0   31655  263605       0  263605  263230   375.4    0.00  1068.2 15337.9    0.00 15337.9 15324.5   13.36
   15 171    95       0   31654  263596       0  263596  263225   371.0    0.00  1068.1 15337.5    0.00 15337.5 15324.2   13.27
   15 172    96       0   31654  263587       0  263587  263220   366.8    0.00  1068.1 15337.1    0.00 15337.1 15324.0   13.17
   15 173    97       0   31653  263579       0  263579  263216   362.8    0.00  1068.1 15336.8    0.00 15336.8 15323.7   13.09
   15 174    98       0   31653  263570       0  263570  263211   359.0    0.00  1068.1 15336.4    0.00 15336.4 15323.4   13.00
   15 175    99       0   31652  263562       0  263562  263207   355.3    0.00  1068.1 15336.1    0.00 15336.1 15323.2   12.92
   15 176   100       0   31652  263554       0  263554  263202   351.4    0.00  1068.1 15335.7    0.00 15335.7 15322.9   12.83
   15 177   101       0   31651  263545       0  263545  263197   347.3    0.00  1068.1 15335.3    0.00 15335.3 15322.6   12.73
   15 178   102       0   31651  263535       0  263535  263192   343.2    0.00  1068.0 15334.9    0.00 15334.9 15322.3   12.64
   15 179   103       0   31650  263526       0  263526  263187   339.4    0.00  1068.0 15334.5    0.00 15334.5 15322.0   12.55
   15 180   104       0   31650  263516       0  263516  263181   335.4    0.00  1068.0 15334.1    0.00 15334.1 15321.6   12.45
   15 181   105       0   31649  263505       0  263505  263174   331.3    0.00  1068.0 15333.6    0.00 15333.6 15321.3   12.35
   15 182   106       0   31648  263494       0  263494  263167   327.3    0.00  1068.0 15333.1    0.00 15333.1 15320.8   12.26
   15 183   107       0   31647  263483       0  263483  263159   323.5    0.00  1067.9 15332.6    0.00 15332.6 15320.4   12.16
   15 184   108       0   31647  263472       0  263472  263152   319.9    0.00  1067.9 15332.0    0.00 15332.0 15319.9   12.07
   15 185   109       0   31646  263460       0  263460  263144   316.6    0.00  1067.9 15331.5    0.00 15331.5 15319.5   11.99
   15 186   110       0   31645  263449       0  263449  263136   313.5    0.00  1067.9 15330.9    0.00 15330.9 15319.0   11.91
   15 187   111       0   31645  263439       0  263439  263128   310.6    0.00  1067.8 15330.3    0.00 15330.3 15318.5   11.84
   15 188   112       0   31644  263428       0  263428  263120   308.0    0.00  1067.8 15329.8    0.00 15329.8 15318.0   11.77
   15 189   113       0   31643  263417       0  263417  263112   304.8    0.00  1067.8 15329.2    0.00 15329.2 15317.5   11.69
   15 190   114       0   31643  263406       0  263406  263105   301.1    0.00  1067.8 15328.7    0.00 15328.7 15317.1   11.59
   15 191   115       0   31642  263396       0  263396  263098   298.1    0.00  1067.8 15328.2    0.00 15328.2 15316.6   11.51
   15 192   116       0   31641  263388       0  263388  263092   295.8    0.00  1067.7 15327.7    0.00 15327.7 15316.3   11.45
   15 193   117       0   31641  263381       0  263381  263087   293.9    0.00  1067.7 15327.4    0.00 15327.4 15316.0   11.40
   15 194   118       0   31641  263375       0  263375  263083   292.6    0.00  1067.7 15327.0    0.00 15327.0 15315.7   11.37
   15 195   119       0   31640  263369       0  263369  263078   291.3    0.00  1067.7 15326.7    0.00 15326.7 15315.4   11.33
   15 196   120       0   31640  263363       0  263363  263073   289.9    0.00  1067.7 15326.4    0.00 15326.4 15315.1   11.29
   15 197   121       0   31639  263357       0  263357  263068   288.6    0.00  1067.7 15326.0    0.00 15326.0 15314.7   11.26
   15 198   122       0   31639  263350       0  263350  263063   287.4    0.00  1067.7 15325.6    0.00 15325.6 15314.4   11.22
   15 199   123       0   31639  263344       0  263344  263058   286.3    0.00  1067.6 15325.2    0.00 15325.2 15314.0   11.20
   15 200   124       0   31638  263338       0  263338  263053   285.4    0.00  1067.6 15324.8    0.00 15324.8 15313.7   11.17
   15 201   125       0   31638  263332       0  263332  263048   284.5    0.00  1067.6 15324.5    0.00 15324.5 15313.3   11.14
   15 202   126       0   31637  263326       0  263326  263043   283.8    0.00  1067.6 15324.1    0.00 15324.1 15313.0   11.12
   15 203   127       0   31637  263321       0  263321  263038   283.0    0.00  1067.6 15323.7    0.00 15323.7 15312.6   11.10
   15 204   128       0   31637  263315       0  263315  263033   282.4    0.00  1067.6 15323.4    0.00 15323.4 15312.3   11.09
   15 205   129       0   31636  263310       0  263310  263028   281.7    0.00  1067.6 15323.0    0.00 15323.0 15311.9   11.07
   15 206   130       0   31636  263304       0  263304  263023   281.1    0.00  1067.6 15322.7    0.00 15322.7 15311.6   11.05
   15 207   131       0   31636  263299       0  263299  263019   280.5    0.00  1067.5 15322.3    0.00 15322.3 15311.3   11.03
   15 208   132       0   31635  263295       0  263295  263015   280.1    0.00  1067.5 15322.0    0.00 15322.0 15311.0   11.02
   15 209   133       0   31635  263290       0  263290  263011   279.3    0.00  1067.5 15321.7    0.00 15321.7 15310.7   11.00
   15 210   134       0   31635  263286       0  263286  263007   278.6    0.00  1067.5 15321.4    0.00 15321.4 15310.5   10.97
   15 211   135       0   31634  263282       0  263282  263004   277.9    0.00  1067.5 15321.2    0.00 15321.2 15310.2   10.95
   15 212   136       0   31634  263278       0  263278  263000   277.3    0.00  1067.5 15320.9    0.00 15320.9 15310.0   10.94
   15 213   137       0   31634  263274       0  263274  262997   276.8    0.00  1067.5 15320.7    0.00 15320.7 15309.8   10.92
   15 214   138       0   31633  263271       0  263271  262994   276.4    0.00  1067.5 15320.5    0.00 15320.5 15309.6   10.91
   15 215   139       0   31633  263267       0  263267  262991   276.0    0.00  1067.5 15320.2    0.00 15320.2 15309.4   10.89
   15 216   140       0   31633  263264       0  263264  262988   275.6    0.00  1067.5 15320.0    0.00 15320.0 15309.1   10.88
   15 217   141       0   31633  263260       0  263260  262984   275.2    0.00  1067.4 15319.7    0.00 15319.7 15308.9   10.87
   15 218   142       0   31632  263255       0  263255  262981   274.8    0.00  1067.4 15319.4    0.00 15319.4 15308.6   10.86
   15 219   143       0   31632  263251       0  263251  262977   274.4    0.00  1067.4 15319.1    0.00 15319.1 15308.3   10.84
   15 220   144       0   31632  263246       0  263246  262972   274.0    0.00  1067.4 15318.8    0.00 15318.8 15308.0   10.83
   15 221   145       0   31631  263241       0  263241  262968   273.5    0.00  1067.4 15318.5    0.00 15318.5 15307.6   10.82
   15 222   146       0   31631  263236       0  263236  262963   273.0    0.00  1067.4 15318.1    0.00 15318.1 15307.3   10.80
   15 223   147       0   31630  263230       0  263230  262958   272.5    0.00  1067.4 15317.7    0.00 15317.7 15307.0   10.79
   15 224   148       0   31630  263225       0  263225  262953   272.1    0.00  1067.3 15317.4    0.00 15317.4 15306.6   10.77

*DSSAT Cropping System Model Ver. 4.8.5.000 -release  OCT 27, 2025 22:35:44

*RUN   3        : 3                         WHAPS048 TUDU1501    3
 MODEL          : WHAPS048 - Wheat
 EXPERIMENT     : TUDU1501 WH
 DATA PATH      :
 TREATMENT  3   : 3                         WHAPS048
  
@YEAR DOY   DAS    OMAC    SCDD    SOCD    SC0D    SCTD   SOMCT    LCTD    ONAC    SNDD    SOND    SN0D    SNTD   SOMNT    LNTD
   15 076     0       0   31671  264376       0  264376  263496   880.0    0.00  1068.9 15356.1    0.00 15356.1 15342.1   14.00
   15 077     1       0   31991  264364       0  264364  263494   869.3    0.00  1079.1 15356.2    0.00 15356.2 15342.0   14.19
   15 078     2       0   31992  264354       0  264354  263493   860.4    0.00  1079.1 15356.2    0.00 15356.2 15341.9   14.34
   15 079     3       0   31992  264346       0  264346  263492   853.6    0.00  1079.1 15356.2    0.00 15356.2 15341.8   14.46
   15 080     4       0   31980  264340       0  264340  263492   848.8    0.00  1078.7 15356.2    0.00 15356.2 15341.7   14.53
   15 081     5       0   31980  264337       0  264337  263491   845.8    0.00  1078.7 15356.2    0.00 15356.2 15341.6   14.58
   15 082     6       0   31980  264336       0  264336  263491   845.2    0.00  1078.7 15356.2    0.00 15356.2 15341.6   14.59
   15 083     7       0   31980  264336       0  264336  263491   845.2    0.00  1078.7 15356.2    0.00 15356.2 15341.6   14.59
   15 084     8       0   31980  264336       0  264336  263491   845.1    0.00  1078.7 15356.2    0.00 15356.2 15341.6   14.59
   15 085     9       0   31980  264335       0  264335  263491   844.7    0.00  1078.7 15356.2    0.00 15356.2 15341.6   14.60
   15 086    10       0   31975  264335       0  264335  263491   844.1    0.00  1078.5 15356.2    0.00 15356.2 15341.6   14.61
   15 087    11       0   31975  264333       0  264333  263490   842.8    0.00  1078.5 15356.2    0.00 15356.2 15341.5   14.63
   15 088    12       0   31975  264330       0  264330  263490   840.6    0.00  1078.5 15356.1    0.00 15356.1 15341.5   14.67
   15 089    13       0   31937  264327       0  264327  263489   837.6    0.00  1077.3 15356.1    0.00 15356.1 15341.4   14.71
   15 090    14       0   31923  264324       0  264324  263489   834.9    0.00  1076.9 15356.1    0.00 15356.1 15341.4   14.75
   15 091    15       0   31909  264320       0  264320  263488   831.8    0.00  1076.4 15356.1    0.00 15356.1 15341.3   14.80
   15 092    16       0   31892  264318       0  264318  263488   829.8    0.00  1075.9 15356.1    0.00 15356.1 15341.3   14.83
   15 093    17       0   31892  264317       0  264317  263488   828.9    0.00  1075.9 15356.1    0.00 15356.1 15341.3   14.84
   15 094    18       0   31876  264317       0  264317  263488   828.8    0.00  1075.4 15356.1    0.00 15356.1 15341.3   14.84
   15 095    19       0   31876  264317       0  264317  263488   828.8    0.00  1075.4 15356.1    0.00 15356.1 15341.3   14.84
   15 096    20       0   31876  264317       0  264317  263488   828.8    0.00  1075.4 15356.1    0.00 15356.1 15341.3   14.84
   15 097    21       0   31876  264317       0  264317  263488   828.8    0.00  1075.4 15356.1    0.00 15356.1 15341.3   14.84
   15 098    22       0   31876  264317       0  264317  263488   828.8    0.00  1075.4 15356.1    0.00 15356.1 15341.3   14.84
   15 099    23       0   31876  264317       0  264317  263488   828.8    0.00  1075.4 15356.1    0.00 15356.1 15341.3   14.84
   15 100    24       0   31876  264317       0  264317  263488   828.8    0.00  1075.4 15356.1    0.00 15356.1 15341.2   14.84
   15 101    25       0   31876  264314       0  264314  263487   826.5    0.00  1075.4 15356.1    0.00 15356.1 15341.2   14.88
   15 102    26       0   31876  264308       0  264308  263486   821.3    0.00  1075.4 15356.1    0.00 15356.1 15341.1   14.95
   15 103    27       0   31876  264299       0  264299  263485   813.8    0.00  1075.4 15356.0    0.00 15356.0 15341.0   15.05
   15 104    28       0   31876  264288       0  264288  263483   805.1    0.00  1075.4 15356.0    0.00 15356.0 15340.8   15.17
   15 105    29       0   31876  264277       0  264277  263481   796.3    0.00  1075.4 15355.9    0.00 15355.9 15340.6   15.28
   15 106    30       0   31876  264266       0  264266  263479   787.2    0.00  1075.3 15355.8    0.00 15355.8 15340.4   15.39
   15 107    31       0   31801  264254       0  264254  263476   777.7    0.00  1073.0 15355.7    0.00 15355.7 15340.2   15.50
   15 108    32       0   31801  264241       0  264241  263474   767.4    0.00  1073.0 15355.6    0.00 15355.6 15340.0   15.60
   15 109    33       0   31801  264230       0  264230  263472   758.4    0.00  1073.0 15355.5    0.00 15355.5 15339.9   15.68
   15 110    34       0   31802  264221       0  264221  263470   751.0    0.00  1073.0 15355.5    0.00 15355.5 15339.7   15.75
   15 111    35       0   31802  264214       0  264214  263469   745.6    0.00  1072.9 15355.4    0.00 15355.4 15339.6   15.79
   15 112    36       0   31802  264210       0  264210  263468   741.7    0.00  1072.9 15355.3    0.00 15355.3 15339.5   15.82
   15 113    37       0   31802  264205       0  264205  263467   738.1    0.00  1072.9 15355.3    0.00 15355.3 15339.4   15.84
   15 114    38       0   31802  264200       0  264200  263466   734.4    0.00  1072.9 15355.2    0.00 15355.2 15339.4   15.87
   15 115    39       0   31799  264195       0  264195  263464   730.3    0.00  1072.9 15355.1    0.00 15355.1 15339.2   15.90
   15 116    40       0   31797  264188       0  264188  263463   725.6    0.00  1072.8 15355.1    0.00 15355.1 15339.1   15.93
   15 117    41       0   31785  264181       0  264181  263461   720.0    0.00  1072.4 15354.9    0.00 15354.9 15339.0   15.97
   15 118    42       0   31773  264171       0  264171  263458   713.3    0.00  1072.0 15354.8    0.00 15354.8 15338.8   16.01
   15 119    43       0   31773  264162       0  264162  263456   706.0    0.00  1072.0 15354.7    0.00 15354.7 15338.6   16.05
   15 120    44       0   31771  264153       0  264153  263453   699.2    0.00  1071.9 15354.5    0.00 15354.5 15338.5   16.08
   15 121    45       0   31728  264144       0  264144  263451   692.8    0.00  1070.6 15354.4    0.00 15354.4 15338.3   16.10
   15 122    46       0   31726  264138       0  264138  263449   688.7    0.00  1070.5 15354.3    0.00 15354.3 15338.2   16.12
   15 123    47       0   31673  264133       0  264133  263448   685.2    0.00  1068.8 15354.2    0.00 15354.2 15338.1   16.13
   15 124    48       0   31673  264127       0  264127  263446   681.0    0.00  1068.8 15354.1    0.00 15354.1 15337.9   16.15
   15 125    49       0   31673  264118       0  264118  263443   674.4    0.00  1068.8 15353.9    0.00 15353.9 15337.7   16.16
   15 126    50       0   31672  264106       0  264106  263440   666.1    0.00  1068.8 15353.7    0.00 15353.7 15337.5   16.18
   15 127    51       0   31672  264094       0  264094  263436   658.5    0.00  1068.8 15353.4    0.00 15353.4 15337.2   16.20
   15 128    52       0   31672  264081       0  264081  263432   649.5    0.00  1068.8 15353.2    0.00 15353.2 15337.0   16.21
   15 129    53       0   31671  264068       0  264068  263428   640.2    0.00  1068.8 15352.9    0.00 15352.9 15336.7   16.21
   15 130    54       0   31671  264056       0  264056  263424   631.9    0.00  1068.7 15352.6    0.00 15352.6 15336.4   16.21
   15 131    55       0   31671  264045       0  264045  263420   624.4    0.00  1068.7 15352.4    0.00 15352.4 15336.2   16.20
   15 132    56       0   31671  264034       0  264034  263416   617.2    0.00  1068.7 15352.1    0.00 15352.1 15335.9   16.18
   15 133    57       0   31670  264022       0  264022  263412   609.5    0.00  1068.7 15351.8    0.00 15351.8 15335.6   16.17
   15 134    58       0   31670  264009       0  264009  263408   601.3    0.00  1068.7 15351.5    0.00 15351.5 15335.4   16.14
   15 135    59       0   31670  263996       0  263996  263403   593.0    0.00  1068.7 15351.2    0.00 15351.2 15335.1   16.11
   15 136    60       0   31669  263984       0  263984  263398   585.6    0.00  1068.7 15350.8    0.00 15350.8 15334.8   16.07
   15 137    61       0   31669  263972       0  263972  263394   578.5    0.00  1068.7 15350.5    0.00 15350.5 15334.5   16.04
   15 138    62       0   31669  263962       0  263962  263390   571.9    0.00  1068.6 15350.2    0.00 15350.2 15334.2   16.00
   15 139    63       0   31668  263952       0  263952  263386   565.8    0.00  1068.6 15350.0    0.00 15350.0 15334.0   15.96
   15 140    64       0   31668  263942       0  263942  263382   559.8    0.00  1068.6 15349.7    0.00 15349.7 15333.7   15.93
   15 141    65       0   31668  263933       0  263933  263378   554.8    0.00  1068.6 15349.4    0.00 15349.4 15333.5   15.89
   15 142    66       0   31667  263925       0  263925  263375   549.8    0.00  1068.6 15349.2    0.00 15349.2 15333.3   15.86
   15 143    67       0   31667  263917       0  263917  263372   545.1    0.00  1068.6 15348.9    0.00 15348.9 15333.1   15.82
   15 144    68       0   31667  263911       0  263911  263370   541.0    0.00  1068.6 15348.8    0.00 15348.8 15333.0   15.79
   15 145    69       0   31667  263905       0  263905  263367   537.3    0.00  1068.6 15348.6    0.00 15348.6 15332.8   15.76
   15 146    70       0   31667  263897       0  263897  263364   532.7    0.00  1068.6 15348.3    0.00 15348.3 15332.6   15.72
   15 147    71       0   31666  263889       0  263889  263361   528.0    0.00  1068.6 15348.1    0.00 15348.1 15332.4   15.67
   15 148    72       0   31666  263881       0  263881  263358   523.4    0.00  1068.5 15347.9    0.00 15347.9 15332.2   15.63
   15 149    73       0   31666  263873       0  263873  263355   518.8    0.00  1068.5 15347.6    0.00 15347.6 15332.0   15.58
   15 150    74       0   31666  263865       0  263865  263351   513.8    0.00  1068.5 15347.3    0.00 15347.3 15331.8   15.53
   15 151    75       0   31665  263856       0  263856  263347   508.7    0.00  1068.5 15347.1    0.00 15347.1 15331.6   15.48
   15 152    76       0   31665  263847       0  263847  263343   503.4    0.00  1068.5 15346.7    0.00 15346.7 15331.3   15.42
   15 153    77       0   31664  263835       0  263835  263338   497.1    0.00  1068.5 15346.4    0.00 15346.4 15331.0   15.35
   15 154    78       0   31664  263823       0  263823  263332   490.4    0.00  1068.5 15345.9    0.00 15345.9 15330.7   15.27
   15 155    79       0   31663  263810       0  263810  263326   483.4    0.00  1068.5 15345.5    0.00 15345.5 15330.3   15.18
   15 156    80       0   31663  263796       0  263796  263319   476.4    0.00  1068.4 15345.0    0.00 15345.0 15329.9   15.09
   15 157    81       0   31662  263781       0  263781  263312   469.2    0.00  1068.4 15344.4    0.00 15344.4 15329.5   14.99
   15 158    82       0   31661  263766       0  263766  263304   461.3    0.00  1068.4 15343.9    0.00 15343.9 15329.0   14.88
   15 159    83       0   31660  263750       0  263750  263296   453.7    0.00  1068.4 15343.3    0.00 15343.3 15328.5   14.77
   15 160    84       0   31660  263734       0  263734  263289   445.2    0.00  1068.3 15342.7    0.00 15342.7 15328.1   14.64
   15 161    85       0   31659  263719       0  263719  263282   437.1    0.00  1068.3 15342.2    0.00 15342.2 15327.7   14.51
   15 162    86       0   31659  263706       0  263706  263276   429.9    0.00  1068.3 15341.7    0.00 15341.7 15327.3   14.39
   15 163    87       0   31658  263693       0  263693  263270   423.2    0.00  1068.3 15341.2    0.00 15341.2 15327.0   14.28
   15 164    88       0   31658  263681       0  263681  263264   416.9    0.00  1068.3 15340.8    0.00 15340.8 15326.6   14.17
   15 165    89       0   31657  263669       0  263669  263258   410.6    0.00  1068.2 15340.3    0.00 15340.3 15326.2   14.05
   15 166    90       0   31656  263655       0  263655  263251   404.2    0.00  1068.2 15339.8    0.00 15339.8 15325.8   13.93
   15 167    91       0   31655  263642       0  263642  263244   398.1    0.00  1068.2 15339.2    0.00 15339.2 15325.4   13.82
   15 168    92       0   31655  263629       0  263629  263237   391.5    0.00  1068.2 15338.7    0.00 15338.7 15325.0   13.69
   15 169    93       0   31654  263616       0  263616  263231   385.4    0.00  1068.1 15338.2    0.00 15338.2 15324.7   13.57
   15 170    94       0   31654  263606       0  263606  263225   380.5    0.00  1068.1 15337.8    0.00 15337.8 15324.3   13.47
   15 171    95       0   31653  263597       0  263597  263221   376.0    0.00  1068.1 15337.4    0.00 15337.4 15324.0   13.37
   15 172    96       0   31653  263588       0  263588  263216   371.6    0.00  1068.1 15337.1    0.00 15337.1 15323.8   13.28
   15 173    97       0   31652  263579       0  263579  263212   367.5    0.00  1068.1 15336.7    0.00 15336.7 15323.5   13.19
   15 174    98       0   31652  263571       0  263571  263207   363.7    0.00  1068.1 15336.4    0.00 15336.4 15323.2   13.11
   15 175    99       0   31651  263562       0  263562  263202   359.9    0.00  1068.1 15336.0    0.00 15336.0 15323.0   13.02
   15 176   100       0   31651  263554       0  263554  263198   355.9    0.00  1068.0 15335.6    0.00 15335.6 15322.7   12.93
   15 177   101       0   31650  263545       0  263545  263193   351.7    0.00  1068.0 15335.3    0.00 15335.3 15322.4   12.84
   15 178   102       0   31650  263535       0  263535  263188   347.5    0.00  1068.0 15334.9    0.00 15334.9 15322.1   12.74
   15 179   103       0   31649  263526       0  263526  263182   343.6    0.00  1068.0 15334.5    0.00 15334.5 15321.8   12.65
   15 180   104       0   31649  263516       0  263516  263176   339.5    0.00  1068.0 15334.0    0.00 15334.0 15321.5   12.55
   15 181   105       0   31648  263505       0  263505  263170   335.4    0.00  1068.0 15333.5    0.00 15333.5 15321.1   12.45
   15 182   106       0   31647  263494       0  263494  263162   331.1    0.00  1067.9 15333.0    0.00 15333.0 15320.7   12.35
   15 183   107       0   31646  263482       0  263482  263155   327.1    0.00  1067.9 15332.5    0.00 15332.5 15320.2   12.25
   15 184   108       0   31646  263470       0  263470  263147   323.2    0.00  1067.9 15331.9    0.00 15331.9 15319.8   12.15
   15 185   109       0   31645  263458       0  263458  263139   319.4    0.00  1067.9 15331.3    0.00 15331.3 15319.3   12.05
   15 186   110       0   31644  263446       0  263446  263130   315.8    0.00  1067.8 15330.7    0.00 15330.7 15318.8   11.96
   15 187   111       0   31643  263434       0  263434  263121   312.3    0.00  1067.8 15330.1    0.00 15330.1 15318.2   11.87
   15 188   112       0   31643  263422       0  263422  263112   309.1    0.00  1067.8 15329.5    0.00 15329.5 15317.7   11.79
   15 189   113       0   31642  263408       0  263408  263103   305.1    0.00  1067.8 15328.8    0.00 15328.8 15317.1   11.68
   15 190   114       0   31641  263395       0  263395  263095   300.4    0.00  1067.7 15328.2    0.00 15328.2 15316.6   11.56
   15 191   115       0   31640  263384       0  263384  263087   296.6    0.00  1067.7 15327.6    0.00 15327.6 15316.2   11.46
   15 192   116       0   31640  263374       0  263374  263080   293.7    0.00  1067.7 15327.1    0.00 15327.1 15315.8   11.39
   15 193   117       0   31639  263365       0  263365  263074   291.2    0.00  1067.7 15326.7    0.00 15326.7 15315.4   11.32
   15 194   118       0   31639  263358       0  263358  263069   289.1    0.00  1067.7 15326.3    0.00 15326.3 15315.0   11.26
   15 195   119       0   31638  263350       0  263350  263063   287.2    0.00  1067.6 15325.9    0.00 15325.9 15314.7   11.21
   15 196   120       0   31638  263342       0  263342  263057   285.1    0.00  1067.6 15325.5    0.00 15325.5 15314.3   11.15
   15 197   121       0   31637  263334       0  263334  263051   283.0    0.00  1067.6 15325.0    0.00 15325.0 15313.9   11.09
   15 198   122       0   31637  263325       0  263325  263044   281.0    0.00  1067.6 15324.5    0.00 15324.5 15313.5   11.04
   15 199   123       0   31636  263316       0  263316  263037   279.2    0.00  1067.6 15324.0    0.00 15324.0 15313.0   10.98
   15 200   124       0   31636  263307       0  263307  263030   277.4    0.00  1067.6 15323.5    0.00 15323.5 15312.6   10.93
   15 201   125       0   31635  263299       0  263299  263023   275.7    0.00  1067.5 15323.0    0.00 15323.0 15312.1   10.89
   15 202   126       0   31635  263290       0  263290  263016   274.2    0.00  1067.5 15322.5    0.00 15322.5 15311.7   10.84
   15 203   127       0   31634  263282       0  263282  263009   272.7    0.00  1067.5 15322.0    0.00 15322.0 15311.2   10.80
   15 204   128       0   31634  263274       0  263274  263002   271.4    0.00  1067.5 15321.5    0.00 15321.5 15310.8   10.76
   15 205   129       0   31633  263265       0  263265  262995   270.0    0.00  1067.5 15321.1    0.00 15321.1 15310.3   10.72
   15 206   130       0   31633  263258       0  263258  262989   268.8    0.00  1067.5 15320.6    0.00 15320.6 15309.9   10.68
   15 207   131       0   31632  263250       0  263250  262983   267.7    0.00  1067.4 15320.1    0.00 15320.1 15309.5   10.65
   15 208   132       0   31632  263244       0  263244  262977   266.8    0.00  1067.4 15319.7    0.00 15319.7 15309.1   10.62
   15 209   133       0   31632  263238       0  263238  262972   265.6    0.00  1067.4 15319.4    0.00 15319.4 15308.8   10.59
   15 210   134       0   31631  263231       0  263231  262967   264.4    0.00  1067.4 15319.0    0.00 15319.0 15308.4   10.55
   15 211   135       0   31631  263226       0  263226  262963   263.4    0.00  1067.4 15318.7    0.00 15318.7 15308.1   10.52
   15 212   136       0   31631  263221       0  263221  262959   262.5    0.00  1067.4 15318.4    0.00 15318.4 15307.9   10.49
   15 213   137       0   31630  263216       0  263216  262954   261.7    0.00  1067.4 15318.1    0.00 15318.1 15307.6   10.47
   15 214   138       0   31630  263211       0  263211  262951   260.9    0.00  1067.4 15317.8    0.00 15317.8 15307.3   10.45
   15 215   139       0   31630  263207       0  263207  262946   260.3    0.00  1067.4 15317.5    0.00 15317.5 15307.0   10.43
   15 216   140       0   31630  263202       0  263202  262942   259.6    0.00  1067.3 15317.2    0.00 15317.2 15306.8   10.41
   15 217   141       0   31629  263196       0  263196  262938   258.9    0.00  1067.3 15316.8    0.00 15316.8 15306.4   10.39
   15 218   142       0   31629  263191       0  263191  262933   258.2    0.00  1067.3 15316.5    0.00 15316.5 15306.1   10.36
   15 219   143       0   31629  263185       0  263185  262927   257.6    0.00  1067.3 15316.1    0.00 15316.1 15305.7   10.34
   15 220   144       0   31628  263179       0  263179  262922   256.9    0.00  1067.3 15315.7    0.00 15315.7 15305.3   10.32
   15 221   145       0   31628  263172       0  263172  262916   256.1    0.00  1067.3 15315.2    0.00 15315.2 15304.9   10.30
   15 222   146       0   31628  263165       0  263165  262910   255.3    0.00  1067.3 15314.8    0.00 15314.8 15304.5   10.27
   15 223   147       0   31627  263159       0  263159  262904   254.6    0.00  1067.3 15314.4    0.00 15314.4 15304.1   10.25
   15 224   148       0   31627  263152       0  263152  262898   253.9    0.00  1067.2 15313.9    0.00 15313.9 15303.7   10.23

*DSSAT Cropping System Model Ver. 4.8.5.000 -release  OCT 27, 2025 22:35:44

*RUN   4        : 4                         WHAPS048 TUDU1501    4
 MODEL          : WHAPS048 - Wheat
 EXPERIMENT     : TUDU1501 WH
 DATA PATH      :
 TREATMENT  4   : 4                         WHAPS048
  
@YEAR DOY   DAS    OMAC    SCDD    SOCD    SC0D    SCTD   SOMCT    LCTD    ONAC    SNDD    SOND    SN0D    SNTD   SOMNT    LNTD
   15 076     0       0   31671  264376       0  264376  263496   880.0    0.00  1068.9 15356.1    0.00 15356.1 15342.1   14.00
   15 077     1       0   31991  264364       0  264364  263494   869.3    0.00  1079.1 15356.2    0.00 15356.2 15342.0   14.19
   15 078     2       0   31992  264354       0  264354  263493   860.4    0.00  1079.1 15356.2    0.00 15356.2 15341.9   14.34
   15 079     3       0   31992  264346       0  264346  263492   853.6    0.00  1079.1 15356.2    0.00 15356.2 15341.8   14.46
   15 080     4       0   31980  264340       0  264340  263492   848.8    0.00  1078.7 15356.2    0.00 15356.2 15341.7   14.53
   15 081     5       0   31980  264337       0  264337  263491   845.8    0.00  1078.7 15356.2    0.00 15356.2 15341.6   14.58
   15 082     6       0   31980  264336       0  264336  263491   845.2    0.00  1078.7 15356.2    0.00 15356.2 15341.6   14.59
   15 083     7       0   31980  264336       0  264336  263491   845.2    0.00  1078.7 15356.2    0.00 15356.2 15341.6   14.59
   15 084     8       0   31980  264336       0  264336  263491   845.1    0.00  1078.7 15356.2    0.00 15356.2 15341.6   14.59
   15 085     9       0   31980  264335       0  264335  263491   844.7    0.00  1078.7 15356.2    0.00 15356.2 15341.6   14.60
   15 086    10       0   31975  264335       0  264335  263491   844.1    0.00  1078.5 15356.2    0.00 15356.2 15341.6   14.61
   15 087    11       0   31975  264333       0  264333  263490   842.8    0.00  1078.5 15356.2    0.00 15356.2 15341.5   14.63
   15 088    12       0   31975  264330       0  264330  263490   840.6    0.00  1078.5 15356.1    0.00 15356.1 15341.5   14.67
   15 089    13       0   31937  264327       0  264327  263489   837.6    0.00  1077.3 15356.1    0.00 15356.1 15341.4   14.71
   15 090    14       0   31923  264324       0  264324  263489   834.9    0.00  1076.9 15356.1    0.00 15356.1 15341.4   14.75
   15 091    15       0   31909  264320       0  264320  263488   831.8    0.00  1076.4 15356.1    0.00 15356.1 15341.3   14.80
   15 092    16       0   31892  264318       0  264318  263488   829.8    0.00  1075.9 15356.1    0.00 15356.1 15341.3   14.83
   15 093    17       0   31892  264317       0  264317  263488   828.9    0.00  1075.9 15356.1    0.00 15356.1 15341.3   14.84
   15 094    18       0   31876  264317       0  264317  263488   828.8    0.00  1075.4 15356.1    0.00 15356.1 15341.3   14.84
   15 095    19       0   31876  264317       0  264317  263488   828.8    0.00  1075.4 15356.1    0.00 15356.1 15341.3   14.84
   15 096    20       0   31876  264317       0  264317  263488   828.8    0.00  1075.4 15356.1    0.00 15356.1 15341.3   14.84
   15 097    21       0   31876  264317       0  264317  263488   828.8    0.00  1075.4 15356.1    0.00 15356.1 15341.3   14.84
   15 098    22       0   31876  264317       0  264317  263488   828.8    0.00  1075.4 15356.1    0.00 15356.1 15341.3   14.84
   15 099    23       0   31876  264317       0  264317  263488   828.8    0.00  1075.4 15356.1    0.00 15356.1 15341.3   14.84
   15 100    24       0   31876  264317       0  264317  263488   828.8    0.00  1075.4 15356.1    0.00 15356.1 15341.2   14.84
   15 101    25       0   31876  264314       0  264314  263487   826.5    0.00  1075.4 15356.1    0.00 15356.1 15341.2   14.88
   15 102    26       0   31876  264308       0  264308  263486   821.3    0.00  1075.4 15356.1    0.00 15356.1 15341.1   14.95
   15 103    27       0   31876  264299       0  264299  263485   813.8    0.00  1075.4 15356.0    0.00 15356.0 15341.0   15.05
   15 104    28       0   31876  264288       0  264288  263483   805.1    0.00  1075.4 15356.0    0.00 15356.0 15340.8   15.17
   15 105    29       0   31876  264277       0  264277  263481   796.3    0.00  1075.4 15355.9    0.00 15355.9 15340.6   15.28
   15 106    30       0   31876  264266       0  264266  263479   787.2    0.00  1075.3 15355.8    0.00 15355.8 15340.4   15.39
   15 107    31       0   31801  264254       0  264254  263476   777.7    0.00  1073.0 15355.7    0.00 15355.7 15340.2   15.50
   15 108    32       0   31801  264241       0  264241  263474   767.1    0.00  1073.0 15355.6    0.00 15355.6 15340.0   15.60
   15 109    33       0   31801  264230       0  264230  263472   757.6    0.00  1073.0 15355.6    0.00 15355.6 15339.9   15.69
   15 110    34       0   31802  264220       0  264220  263470   749.8    0.00  1073.0 15355.5    0.00 15355.5 15339.7   15.75
   15 111    35       0   31802  264213       0  264213  263469   744.1    0.00  1073.0 15355.4    0.00 15355.4 15339.6   15.80
   15 112    36       0   31802  264208       0  264208  263468   740.0    0.00  1072.9 15355.4    0.00 15355.4 15339.5   15.83
   15 113    37       0   31802  264203       0  264203  263467   736.2    0.00  1072.9 15355.3    0.00 15355.3 15339.5   15.85
   15 114    38       0   31802  264198       0  264198  263466   732.3    0.00  1072.9 15355.2    0.00 15355.2 15339.4   15.88
   15 115    39       0   31799  264193       0  264193  263465   727.8    0.00  1072.9 15355.2    0.00 15355.2 15339.3   15.91
   15 116    40       0   31797  264186       0  264186  263463   722.8    0.00  1072.8 15355.1    0.00 15355.1 15339.1   15.94
   15 117    41       0   31785  264178       0  264178  263461   716.7    0.00  1072.4 15355.0    0.00 15355.0 15339.0   15.98
   15 118    42       0   31773  264168       0  264168  263459   709.1    0.00  1072.0 15354.8    0.00 15354.8 15338.8   16.02
   15 119    43       0   31773  264158       0  264158  263457   700.8    0.00  1072.0 15354.7    0.00 15354.7 15338.6   16.06
   15 120    44       0   31771  264148       0  264148  263455   693.0    0.00  1072.0 15354.6    0.00 15354.6 15338.5   16.09
   15 121    45       0   31728  264138       0  264138  263453   685.5    0.00  1070.6 15354.4    0.00 15354.4 15338.3   16.11
   15 122    46       0   31727  264132       0  264132  263451   680.7    0.00  1070.5 15354.3    0.00 15354.3 15338.2   16.13
   15 123    47       0   31674  264126       0  264126  263450   676.6    0.00  1068.8 15354.2    0.00 15354.2 15338.1   16.14
   15 124    48       0   31673  264120       0  264120  263448   671.8    0.00  1068.8 15354.1    0.00 15354.1 15338.0   16.15
   15 125    49       0   31673  264109       0  264109  263445   664.2    0.00  1068.8 15353.9    0.00 15353.9 15337.8   16.16
   15 126    50       0   31673  264097       0  264097  263442   654.9    0.00  1068.8 15353.7    0.00 15353.7 15337.6   16.17
   15 127    51       0   31673  264085       0  264085  263438   646.7    0.00  1068.8 15353.5    0.00 15353.5 15337.3   16.18
   15 128    52       0   31673  264072       0  264072  263434   637.2    0.00  1068.8 15353.2    0.00 15353.2 15337.0   16.18
   15 129    53       0   31673  264057       0  264057  263430   627.1    0.00  1068.8 15352.9    0.00 15352.9 15336.7   16.17
   15 130    54       0   31673  264044       0  264044  263426   618.1    0.00  1068.8 15352.6    0.00 15352.6 15336.5   16.16
   15 131    55       0   31672  264033       0  264033  263423   610.3    0.00  1068.8 15352.4    0.00 15352.4 15336.3   16.14
   15 132    56       0   31672  264022       0  264022  263419   602.8    0.00  1068.8 15352.1    0.00 15352.1 15336.0   16.12
   15 133    57       0   31672  264010       0  264010  263415   595.0    0.00  1068.8 15351.8    0.00 15351.8 15335.7   16.09
   15 134    58       0   31671  263997       0  263997  263410   586.7    0.00  1068.7 15351.5    0.00 15351.5 15335.4   16.06
   15 135    59       0   31671  263985       0  263985  263406   578.9    0.00  1068.7 15351.2    0.00 15351.2 15335.1   16.02
   15 136    60       0   31671  263973       0  263973  263401   571.9    0.00  1068.7 15350.8    0.00 15350.8 15334.9   15.99
   15 137    61       0   31670  263962       0  263962  263397   565.2    0.00  1068.7 15350.5    0.00 15350.5 15334.6   15.95
   15 138    62       0   31670  263952       0  263952  263392   559.2    0.00  1068.7 15350.2    0.00 15350.2 15334.3   15.91
   15 139    63       0   31669  263942       0  263942  263388   553.9    0.00  1068.7 15349.9    0.00 15349.9 15334.1   15.88
   15 140    64       0   31669  263933       0  263933  263385   548.0    0.00  1068.7 15349.7    0.00 15349.7 15333.8   15.83
   15 141    65       0   31669  263924       0  263924  263381   543.0    0.00  1068.6 15349.4    0.00 15349.4 15333.6   15.80
   15 142    66       0   31668  263916       0  263916  263378   538.1    0.00  1068.6 15349.1    0.00 15349.1 15333.4   15.76
   15 143    67       0   31668  263908       0  263908  263375   533.5    0.00  1068.6 15348.9    0.00 15348.9 15333.2   15.72
   15 144    68       0   31668  263902       0  263902  263372   529.6    0.00  1068.6 15348.7    0.00 15348.7 15333.0   15.68
   15 145    69       0   31668  263896       0  263896  263370   525.9    0.00  1068.6 15348.5    0.00 15348.5 15332.9   15.65
   15 146    70       0   31668  263888       0  263888  263367   521.5    0.00  1068.6 15348.3    0.00 15348.3 15332.7   15.61
   15 147    71       0   31667  263880       0  263880  263363   516.9    0.00  1068.6 15348.1    0.00 15348.1 15332.5   15.56
   15 148    72       0   31667  263873       0  263873  263360   512.3    0.00  1068.6 15347.8    0.00 15347.8 15332.3   15.51
   15 149    73       0   31667  263865       0  263865  263357   507.8    0.00  1068.6 15347.6    0.00 15347.6 15332.1   15.46
   15 150    74       0   31667  263856       0  263856  263353   502.9    0.00  1068.6 15347.3    0.00 15347.3 15331.9   15.41
   15 151    75       0   31666  263848       0  263848  263350   498.0    0.00  1068.5 15347.0    0.00 15347.0 15331.6   15.36
   15 152    76       0   31666  263838       0  263838  263345   492.9    0.00  1068.5 15346.7    0.00 15346.7 15331.4   15.30
   15 153    77       0   31665  263827       0  263827  263340   486.5    0.00  1068.5 15346.3    0.00 15346.3 15331.1   15.22
   15 154    78       0   31665  263814       0  263814  263335   479.6    0.00  1068.5 15345.9    0.00 15345.9 15330.7   15.13
   15 155    79       0   31664  263801       0  263801  263328   472.5    0.00  1068.5 15345.4    0.00 15345.4 15330.4   15.04
   15 156    80       0   31664  263787       0  263787  263321   465.6    0.00  1068.5 15344.9    0.00 15344.9 15330.0   14.95
   15 157    81       0   31663  263773       0  263773  263314   458.8    0.00  1068.4 15344.4    0.00 15344.4 15329.5   14.85
   15 158    82       0   31662  263758       0  263758  263306   451.6    0.00  1068.4 15343.8    0.00 15343.8 15329.1   14.75
   15 159    83       0   31661  263744       0  263744  263299   445.2    0.00  1068.4 15343.3    0.00 15343.3 15328.6   14.65
   15 160    84       0   31661  263728       0  263728  263292   436.6    0.00  1068.4 15342.7    0.00 15342.7 15328.2   14.51
   15 161    85       0   31660  263714       0  263714  263285   428.8    0.00  1068.3 15342.2    0.00 15342.2 15327.8   14.38
   15 162    86       0   31660  263701       0  263701  263279   422.0    0.00  1068.3 15341.7    0.00 15341.7 15327.4   14.26
   15 163    87       0   31659  263690       0  263690  263274   415.9    0.00  1068.3 15341.2    0.00 15341.2 15327.1   14.15
   15 164    88       0   31659  263678       0  263678  263268   410.3    0.00  1068.3 15340.8    0.00 15340.8 15326.8   14.05
   15 165    89       0   31658  263667       0  263667  263262   404.5    0.00  1068.3 15340.3    0.00 15340.3 15326.4   13.94
   15 166    90       0   31657  263654       0  263654  263255   398.6    0.00  1068.2 15339.8    0.00 15339.8 15326.0   13.83
   15 167    91       0   31657  263641       0  263641  263248   392.6    0.00  1068.2 15339.3    0.00 15339.3 15325.6   13.71
   15 168    92       0   31656  263628       0  263628  263242   386.3    0.00  1068.2 15338.8    0.00 15338.8 15325.2   13.58
   15 169    93       0   31655  263616       0  263616  263235   380.3    0.00  1068.2 15338.3    0.00 15338.3 15324.8   13.46
   15 170    94       0   31655  263605       0  263605  263230   375.5    0.00  1068.2 15337.9    0.00 15337.9 15324.5   13.36
   15 171    95       0   31654  263596       0  263596  263225   371.1    0.00  1068.1 15337.5    0.00 15337.5 15324.2   13.27
   15 172    96       0   31654  263587       0  263587  263220   366.8    0.00  1068.1 15337.1    0.00 15337.1 15324.0   13.18
   15 173    97       0   31653  263579       0  263579  263216   362.8    0.00  1068.1 15336.8    0.00 15336.8 15323.7   13.09
   15 174    98       0   31653  263570       0  263570  263211   359.1    0.00  1068.1 15336.4    0.00 15336.4 15323.4   13.01
   15 175    99       0   31652  263562       0  263562  263207   355.4    0.00  1068.1 15336.1    0.00 15336.1 15323.2   12.92
   15 176   100       0   31652  263554       0  263554  263202   351.5    0.00  1068.1 15335.7    0.00 15335.7 15322.9   12.83
   15 177   101       0   31651  263545       0  263545  263197   347.4    0.00  1068.1 15335.3    0.00 15335.3 15322.6   12.74
   15 178   102       0   31651  263535       0  263535  263192   343.3    0.00  1068.0 15334.9    0.00 15334.9 15322.3   12.64
   15 179   103       0   31650  263526       0  263526  263186   339.4    0.00  1068.0 15334.5    0.00 15334.5 15322.0   12.55
   15 180   104       0   31650  263516       0  263516  263180   335.5    0.00  1068.0 15334.1    0.00 15334.1 15321.6   12.45
   15 181   105       0   31649  263505       0  263505  263174   331.4    0.00  1068.0 15333.6    0.00 15333.6 15321.2   12.36
   15 182   106       0   31648  263494       0  263494  263167   327.3    0.00  1068.0 15333.1    0.00 15333.1 15320.8   12.26
   15 183   107       0   31647  263483       0  263483  263159   323.5    0.00  1067.9 15332.6    0.00 15332.6 15320.4   12.16
   15 184   108       0   31647  263471       0  263471  263151   320.0    0.00  1067.9 15332.0    0.00 15332.0 15319.9   12.08
   15 185   109       0   31646  263460       0  263460  263144   316.7    0.00  1067.9 15331.5    0.00 15331.5 15319.5   11.99
   15 186   110       0   31645  263449       0  263449  263136   313.5    0.00  1067.9 15330.9    0.00 15330.9 15319.0   11.91
   15 187   111       0   31645  263438       0  263438  263128   310.7    0.00  1067.8 15330.3    0.00 15330.3 15318.5   11.84
   15 188   112       0   31644  263428       0  263428  263120   308.1    0.00  1067.8 15329.8    0.00 15329.8 15318.0   11.78
   15 189   113       0   31643  263417       0  263417  263112   304.9    0.00  1067.8 15329.2    0.00 15329.2 15317.5   11.69
   15 190   114       0   31643  263406       0  263406  263104   301.1    0.00  1067.8 15328.6    0.00 15328.6 15317.1   11.59
   15 191   115       0   31642  263396       0  263396  263098   298.1    0.00  1067.8 15328.2    0.00 15328.2 15316.6   11.51
   15 192   116       0   31641  263388       0  263388  263092   295.8    0.00  1067.7 15327.7    0.00 15327.7 15316.3   11.45
   15 193   117       0   31641  263381       0  263381  263087   294.0    0.00  1067.7 15327.4    0.00 15327.4 15316.0   11.40
   15 194   118       0   31641  263375       0  263375  263082   292.6    0.00  1067.7 15327.0    0.00 15327.0 15315.7   11.37
   15 195   119       0   31640  263369       0  263369  263078   291.3    0.00  1067.7 15326.7    0.00 15326.7 15315.4   11.33
   15 196   120       0   31640  263363       0  263363  263073   290.0    0.00  1067.7 15326.3    0.00 15326.3 15315.1   11.29
   15 197   121       0   31639  263357       0  263357  263068   288.6    0.00  1067.7 15326.0    0.00 15326.0 15314.7   11.26
   15 198   122       0   31639  263350       0  263350  263063   287.4    0.00  1067.7 15325.6    0.00 15325.6 15314.4   11.23
   15 199   123       0   31639  263344       0  263344  263058   286.4    0.00  1067.6 15325.2    0.00 15325.2 15314.0   11.20
   15 200   124       0   31638  263338       0  263338  263053   285.4    0.00  1067.6 15324.8    0.00 15324.8 15313.7   11.17
   15 201   125       0   31638  263332       0  263332  263048   284.6    0.00  1067.6 15324.5    0.00 15324.5 15313.3   11.15
   15 202   126       0   31637  263326       0  263326  263042   283.8    0.00  1067.6 15324.1    0.00 15324.1 15313.0   11.12
   15 203   127       0   31637  263320       0  263320  263037   283.1    0.00  1067.6 15323.7    0.00 15323.7 15312.6   11.10
   15 204   128       0   31637  263315       0  263315  263032   282.4    0.00  1067.6 15323.4    0.00 15323.4 15312.3   11.09
   15 205   129       0   31636  263309       0  263309  263028   281.7    0.00  1067.6 15323.0    0.00 15323.0 15311.9   11.07
   15 206   130       0   31636  263304       0  263304  263023   281.1    0.00  1067.6 15322.6    0.00 15322.6 15311.6   11.05
   15 207   131       0   31636  263299       0  263299  263018   280.6    0.00  1067.5 15322.3    0.00 15322.3 15311.3   11.03
   15 208   132       0   31635  263294       0  263294  263014   280.1    0.00  1067.5 15322.0    0.00 15322.0 15311.0   11.02
   15 209   133       0   31635  263290       0  263290  263010   279.4    0.00  1067.5 15321.7    0.00 15321.7 15310.7   11.00
   15 210   134       0   31635  263285       0  263285  263007   278.6    0.00  1067.5 15321.4    0.00 15321.4 15310.5   10.97
   15 211   135       0   31634  263281       0  263281  263003   277.9    0.00  1067.5 15321.2    0.00 15321.2 15310.2   10.95
   15 212   136       0   31634  263278       0  263278  263000   277.3    0.00  1067.5 15320.9    0.00 15320.9 15310.0   10.94
   15 213   137       0   31634  263274       0  263274  262997   276.8    0.00  1067.5 15320.7    0.00 15320.7 15309.8   10.92
   15 214   138       0   31633  263270       0  263270  262994   276.4    0.00  1067.5 15320.5    0.00 15320.5 15309.6   10.91
   15 215   139       0   31633  263267       0  263267  262991   276.0    0.00  1067.5 15320.2    0.00 15320.2 15309.3   10.89
   15 216   140       0   31633  263263       0  263263  262988   275.6    0.00  1067.4 15320.0    0.00 15320.0 15309.1   10.88
   15 217   141       0   31633  263259       0  263259  262984   275.1    0.00  1067.4 15319.7    0.00 15319.7 15308.8   10.87
   15 218   142       0   31632  263255       0  263255  262980   274.8    0.00  1067.4 15319.4    0.00 15319.4 15308.6   10.86
   15 219   143       0   31632  263251       0  263251  262976   274.4    0.00  1067.4 15319.1    0.00 15319.1 15308.3   10.84
   15 220   144       0   31632  263246       0  263246  262972   274.0    0.00  1067.4 15318.8    0.00 15318.8 15308.0   10.83
   15 221   145       0   31631  263241       0  263241  262967   273.5    0.00  1067.4 15318.4    0.00 15318.4 15307.6   10.82
   15 222   146       0   31631  263235       0  263235  262962   273.0    0.00  1067.4 15318.1    0.00 15318.1 15307.3   10.80
   15 223   147       0   31630  263230       0  263230  262958   272.5    0.00  1067.4 15317.7    0.00 15317.7 15306.9   10.79
   15 224   148       0   31630  263225       0  263225  262953   272.1    0.00  1067.3 15317.4    0.00 15317.4 15306.6   10.77

*DSSAT Cropping System Model Ver. 4.8.5.000 -release  OCT 27, 2025 22:35:44

*RUN   5        : 5                         WHAPS048 TUDU1501    5
 MODEL          : WHAPS048 - Wheat
 EXPERIMENT     : TUDU1501 WH
 DATA PATH      :
 TREATMENT  5   : 5                         WHAPS048
  
@YEAR DOY   DAS    OMAC    SCDD    SOCD    SC0D    SCTD   SOMCT    LCTD    ONAC    SNDD    SOND    SN0D    SNTD   SOMNT    LNTD
   15 076     0       0   31671  264376       0  264376  263496   880.0    0.00  1068.9 15356.1    0.00 15356.1 15342.1   14.00
   15 077     1       0   31991  264364       0  264364  263494   869.3    0.00  1079.1 15356.2    0.00 15356.2 15342.0   14.19
   15 078     2       0   31992  264354       0  264354  263493   860.4    0.00  1079.1 15356.2    0.00 15356.2 15341.9   14.34
   15 079     3       0   31992  264346       0  264346  263492   853.6    0.00  1079.1 15356.2    0.00 15356.2 15341.8   14.46
   15 080     4       0   31980  264340       0  264340  263492   848.8    0.00  1078.7 15356.2    0.00 15356.2 15341.7   14.53
   15 081     5       0   31980  264337       0  264337  263491   845.8    0.00  1078.7 15356.2    0.00 15356.2 15341.6   14.58
   15 082     6       0   31980  264336       0  264336  263491   845.2    0.00  1078.7 15356.2    0.00 15356.2 15341.6   14.59
   15 083     7       0   31980  264336       0  264336  263491   845.2    0.00  1078.7 15356.2    0.00 15356.2 15341.6   14.59
   15 084     8       0   31980  264336       0  264336  263491   845.1    0.00  1078.7 15356.2    0.00 15356.2 15341.6   14.59
   15 085     9       0   31980  264335       0  264335  263491   844.7    0.00  1078.7 15356.2    0.00 15356.2 15341.6   14.60
   15 086    10       0   31975  264335       0  264335  263491   844.1    0.00  1078.5 15356.2    0.00 15356.2 15341.6   14.61
   15 087    11       0   31975  264333       0  264333  263490   842.8    0.00  1078.5 15356.2    0.00 15356.2 15341.5   14.63
[...]
   15 221   145       0   31632  263247       0  263247  262973   273.4    0.00  1067.4 15318.7    0.00 15318.7 15307.9   10.81
   15 222   146       0   31631  263242       0  263242  262969   273.0    0.00  1067.4 15318.4    0.00 15318.4 15307.6   10.79
   15 223   147       0   31631  263236       0  263236  262964   272.6    0.00  1067.4 15318.0    0.00 15318.0 15307.2   10.78
   15 224   148       0   31631  263231       0  263231  262959   272.2    0.00  1067.4 15317.7    0.00 15317.7 15306.9   10.77

*DSSAT Cropping System Model Ver. 4.8.5.000 -release  OCT 27, 2025 22:35:46

*RUN  15        : 15                        WHAPS048 TUDU1501   15
 MODEL          : WHAPS048 - Wheat
 EXPERIMENT     : TUDU1501 WH
 DATA PATH      :
 TREATMENT 15   : 15                        WHAPS048
  
@YEAR DOY   DAS    OMAC    SCDD    SOCD    SC0D    SCTD   SOMCT    LCTD    ONAC    SNDD    SOND    SN0D    SNTD   SOMNT    LNTD
   15 076     0       0   31671  264376       0  264376  263496   880.0    0.00  1068.9 15356.1    0.00 15356.1 15342.1   14.00
   15 077     1       0   31991  264364       0  264364  263494   869.3    0.00  1079.1 15356.2    0.00 15356.2 15342.0   14.19
   15 078     2       0   31992  264354       0  264354  263493   860.4    0.00  1079.1 15356.2    0.00 15356.2 15341.9   14.34
   15 079     3       0   31992  264346       0  264346  263492   853.6    0.00  1079.1 15356.2    0.00 15356.2 15341.8   14.46
   15 080     4       0   31980  264340       0  264340  263492   848.8    0.00  1078.7 15356.2    0.00 15356.2 15341.7   14.53
   15 081     5       0   31980  264337       0  264337  263491   845.8    0.00  1078.7 15356.2    0.00 15356.2 15341.6   14.58
   15 082     6       0   31980  264336       0  264336  263491   845.2    0.00  1078.7 15356.2    0.00 15356.2 15341.6   14.59
   15 083     7       0   31980  264336       0  264336  263491   845.2    0.00  1078.7 15356.2    0.00 15356.2 15341.6   14.59
   15 084     8       0   31980  264336       0  264336  263491   845.1    0.00  1078.7 15356.2    0.00 15356.2 15341.6   14.59
   15 085     9       0   31980  264335       0  264335  263491   844.7    0.00  1078.7 15356.2    0.00 15356.2 15341.6   14.60
   15 086    10       0   31975  264335       0  264335  263491   844.1    0.00  1078.5 15356.2    0.00 15356.2 15341.6   14.61
   15 087    11       0   31975  264333       0  264333  263490   842.8    0.00  1078.5 15356.2    0.00 15356.2 15341.5   14.63
   15 088    12       0   31975  264330       0  264330  263490   840.6    0.00  1078.5 15356.1    0.00 15356.1 15341.5   14.67
   15 089    13       0   31937  264327       0  264327  263489   837.6    0.00  1077.3 15356.1    0.00 15356.1 15341.4   14.71
   15 090    14       0   31923  264324       0  264324  263489   834.9    0.00  1076.9 15356.1    0.00 15356.1 15341.4   14.75
   15 091    15       0   31909  264320       0  264320  263488   831.8    0.00  1076.4 15356.1    0.00 15356.1 15341.3   14.80
   15 092    16       0   31892  264318       0  264318  263488   829.8    0.00  1075.9 15356.1    0.00 15356.1 15341.3   14.83
   15 093    17       0   31892  264317       0  264317  263488   828.9    0.00  1075.9 15356.1    0.00 15356.1 15341.3   14.84
   15 094    18       0   31876  264317       0  264317  263488   828.8    0.00  1075.4 15356.1    0.00 15356.1 15341.3   14.84
   15 095    19       0   31876  264317       0  264317  263488   828.8    0.00  1075.4 15356.1    0.00 15356.1 15341.3   14.84
   15 096    20       0   31876  264317       0  264317  263488   828.8    0.00  1075.4 15356.1    0.00 15356.1 15341.3   14.84
   15 097    21       0   31876  264317       0  264317  263488   828.8    0.00  1075.4 15356.1    0.00 15356.1 15341.3   14.84
   15 098    22       0   31876  264317       0  264317  263488   828.8    0.00  1075.4 15356.1    0.00 15356.1 15341.3   14.84
   15 099    23       0   31876  264317       0  264317  263488   828.8    0.00  1075.4 15356.1    0.00 15356.1 15341.3   14.84
   15 100    24       0   31876  264317       0  264317  263488   828.8    0.00  1075.4 15356.1    0.00 15356.1 15341.2   14.84
   15 101    25       0   31876  264314       0  264314  263487   826.5    0.00  1075.4 15356.1    0.00 15356.1 15341.2   14.88
   15 102    26       0   31876  264308       0  264308  263486   821.3    0.00  1075.4 15356.1    0.00 15356.1 15341.1   14.95
   15 103    27       0   31876  264299       0  264299  263485   813.8    0.00  1075.4 15356.0    0.00 15356.0 15341.0   15.05
   15 104    28       0   31876  264288       0  264288  263483   805.1    0.00  1075.4 15356.0    0.00 15356.0 15340.8   15.17
   15 105    29       0   31876  264277       0  264277  263481   796.3    0.00  1075.4 15355.9    0.00 15355.9 15340.6   15.28
   15 106    30       0   31876  264266       0  264266  263479   787.2    0.00  1075.3 15355.8    0.00 15355.8 15340.4   15.39
   15 107    31       0   31801  264254       0  264254  263476   777.7    0.00  1073.0 15355.7    0.00 15355.7 15340.2   15.50
   15 108    32       0   31801  264241       0  264241  263474   767.4    0.00  1073.0 15355.6    0.00 15355.6 15340.0   15.60
   15 109    33       0   31801  264230       0  264230  263472   758.4    0.00  1073.0 15355.5    0.00 15355.5 15339.9   15.68
   15 110    34       0   31802  264221       0  264221  263470   751.0    0.00  1073.0 15355.5    0.00 15355.5 15339.7   15.75
   15 111    35       0   31802  264214       0  264214  263469   745.6    0.00  1072.9 15355.4    0.00 15355.4 15339.6   15.79
   15 112    36       0   31802  264210       0  264210  263468   741.7    0.00  1072.9 15355.3    0.00 15355.3 15339.5   15.82
   15 113    37       0   31802  264205       0  264205  263467   738.1    0.00  1072.9 15355.3    0.00 15355.3 15339.4   15.84
   15 114    38       0   31802  264200       0  264200  263466   734.4    0.00  1072.9 15355.2    0.00 15355.2 15339.4   15.87
   15 115    39       0   31799  264195       0  264195  263464   730.3    0.00  1072.9 15355.1    0.00 15355.1 15339.2   15.90
   15 116    40       0   31797  264188       0  264188  263463   725.6    0.00  1072.8 15355.1    0.00 15355.1 15339.1   15.93
   15 117    41       0   31785  264181       0  264181  263461   720.0    0.00  1072.4 15354.9    0.00 15354.9 15339.0   15.97
   15 118    42       0   31773  264171       0  264171  263458   713.3    0.00  1072.0 15354.8    0.00 15354.8 15338.8   16.01
   15 119    43       0   31773  264162       0  264162  263456   706.0    0.00  1072.0 15354.7    0.00 15354.7 15338.6   16.05
   15 120    44       0   31771  264153       0  264153  263453   699.2    0.00  1071.9 15354.5    0.00 15354.5 15338.5   16.08
   15 121    45       0   31728  264144       0  264144  263451   692.8    0.00  1070.6 15354.4    0.00 15354.4 15338.3   16.10
   15 122    46       0   31726  264138       0  264138  263449   688.7    0.00  1070.5 15354.3    0.00 15354.3 15338.2   16.12
   15 123    47       0   31673  264133       0  264133  263448   685.2    0.00  1068.8 15354.2    0.00 15354.2 15338.1   16.13
   15 124    48       0   31673  264127       0  264127  263446   681.0    0.00  1068.8 15354.1    0.00 15354.1 15337.9   16.15
   15 125    49       0   31673  264118       0  264118  263443   674.4    0.00  1068.8 15353.9    0.00 15353.9 15337.7   16.16
   15 126    50       0   31672  264106       0  264106  263440   666.1    0.00  1068.8 15353.7    0.00 15353.7 15337.5   16.18
   15 127    51       0   31672  264094       0  264094  263436   658.5    0.00  1068.8 15353.4    0.00 15353.4 15337.2   16.20
   15 128    52       0   31672  264081       0  264081  263432   649.5    0.00  1068.8 15353.2    0.00 15353.2 15337.0   16.21
   15 129    53       0   31671  264068       0  264068  263428   640.2    0.00  1068.8 15352.9    0.00 15352.9 15336.7   16.21
   15 130    54       0   31671  264056       0  264056  263424   631.9    0.00  1068.7 15352.6    0.00 15352.6 15336.4   16.21
   15 131    55       0   31671  264045       0  264045  263420   624.4    0.00  1068.7 15352.4    0.00 15352.4 15336.2   16.20
   15 132    56       0   31671  264034       0  264034  263416   617.2    0.00  1068.7 15352.1    0.00 15352.1 15335.9   16.18
   15 133    57       0   31670  264022       0  264022  263412   609.5    0.00  1068.7 15351.8    0.00 15351.8 15335.6   16.17
   15 134    58       0   31670  264009       0  264009  263408   601.3    0.00  1068.7 15351.5    0.00 15351.5 15335.4   16.14
   15 135    59       0   31670  263996       0  263996  263403   593.0    0.00  1068.7 15351.2    0.00 15351.2 15335.1   16.11
   15 136    60       0   31669  263984       0  263984  263398   585.6    0.00  1068.7 15350.8    0.00 15350.8 15334.8   16.07
   15 137    61       0   31669  263972       0  263972  263394   578.5    0.00  1068.7 15350.5    0.00 15350.5 15334.5   16.04
   15 138    62       0   31669  263962       0  263962  263390   571.9    0.00  1068.6 15350.2    0.00 15350.2 15334.2   16.00
   15 139    63       0   31668  263952       0  263952  263386   565.8    0.00  1068.6 15350.0    0.00 15350.0 15334.0   15.96
   15 140    64       0   31668  263942       0  263942  263382   559.8    0.00  1068.6 15349.7    0.00 15349.7 15333.7   15.93
   15 141    65       0   31668  263933       0  263933  263378   554.8    0.00  1068.6 15349.4    0.00 15349.4 15333.5   15.89
   15 142    66       0   31667  263925       0  263925  263375   549.8    0.00  1068.6 15349.2    0.00 15349.2 15333.3   15.86
   15 143    67       0   31667  263917       0  263917  263372   545.1    0.00  1068.6 15348.9    0.00 15348.9 15333.1   15.82
   15 144    68       0   31667  263911       0  263911  263370   541.0    0.00  1068.6 15348.8    0.00 15348.8 15333.0   15.79
   15 145    69       0   31667  263905       0  263905  263367   537.3    0.00  1068.6 15348.6    0.00 15348.6 15332.8   15.76
   15 146    70       0   31667  263897       0  263897  263364   532.7    0.00  1068.6 15348.3    0.00 15348.3 15332.6   15.72
   15 147    71       0   31666  263889       0  263889  263361   528.0    0.00  1068.6 15348.1    0.00 15348.1 15332.4   15.67
   15 148    72       0   31666  263881       0  263881  263358   523.4    0.00  1068.5 15347.9    0.00 15347.9 15332.2   15.63
   15 149    73       0   31666  263873       0  263873  263355   518.8    0.00  1068.5 15347.6    0.00 15347.6 15332.0   15.58
   15 150    74       0   31666  263865       0  263865  263351   513.8    0.00  1068.5 15347.3    0.00 15347.3 15331.8   15.53
   15 151    75       0   31665  263856       0  263856  263347   508.7    0.00  1068.5 15347.1    0.00 15347.1 15331.6   15.48
   15 152    76       0   31665  263847       0  263847  263343   503.4    0.00  1068.5 15346.7    0.00 15346.7 15331.3   15.42
   15 153    77       0   31664  263835       0  263835  263338   497.1    0.00  1068.5 15346.4    0.00 15346.4 15331.0   15.35
   15 154    78       0   31664  263823       0  263823  263332   490.4    0.00  1068.5 15345.9    0.00 15345.9 15330.7   15.27
   15 155    79       0   31663  263810       0  263810  263326   483.4    0.00  1068.5 15345.5    0.00 15345.5 15330.3   15.18
   15 156    80       0   31663  263796       0  263796  263319   476.4    0.00  1068.4 15345.0    0.00 15345.0 15329.9   15.09
   15 157    81       0   31662  263781       0  263781  263312   469.2    0.00  1068.4 15344.4    0.00 15344.4 15329.5   14.99
   15 158    82       0   31661  263766       0  263766  263304   461.3    0.00  1068.4 15343.9    0.00 15343.9 15329.0   14.88
   15 159    83       0   31660  263750       0  263750  263296   453.7    0.00  1068.4 15343.3    0.00 15343.3 15328.5   14.77
   15 160    84       0   31660  263734       0  263734  263289   445.2    0.00  1068.3 15342.7    0.00 15342.7 15328.1   14.64
   15 161    85       0   31659  263719       0  263719  263282   437.1    0.00  1068.3 15342.2    0.00 15342.2 15327.7   14.51
   15 162    86       0   31659  263706       0  263706  263276   429.9    0.00  1068.3 15341.7    0.00 15341.7 15327.3   14.39
   15 163    87       0   31658  263693       0  263693  263270   423.2    0.00  1068.3 15341.2    0.00 15341.2 15327.0   14.28
   15 164    88       0   31658  263681       0  263681  263264   416.9    0.00  1068.3 15340.8    0.00 15340.8 15326.6   14.17
   15 165    89       0   31657  263669       0  263669  263258   410.6    0.00  1068.2 15340.3    0.00 15340.3 15326.2   14.05
   15 166    90       0   31656  263655       0  263655  263251   404.2    0.00  1068.2 15339.8    0.00 15339.8 15325.8   13.93
   15 167    91       0   31655  263642       0  263642  263244   398.1    0.00  1068.2 15339.2    0.00 15339.2 15325.4   13.82
   15 168    92       0   31655  263629       0  263629  263237   391.5    0.00  1068.2 15338.7    0.00 15338.7 15325.0   13.69
   15 169    93       0   31654  263616       0  263616  263231   385.4    0.00  1068.1 15338.2    0.00 15338.2 15324.7   13.57
   15 170    94       0   31654  263606       0  263606  263225   380.5    0.00  1068.1 15337.8    0.00 15337.8 15324.3   13.47
   15 171    95       0   31653  263597       0  263597  263221   376.0    0.00  1068.1 15337.4    0.00 15337.4 15324.0   13.37
   15 172    96       0   31653  263588       0  263588  263216   371.6    0.00  1068.1 15337.1    0.00 15337.1 15323.8   13.28
   15 173    97       0   31652  263579       0  263579  263212   367.5    0.00  1068.1 15336.7    0.00 15336.7 15323.5   13.19
   15 174    98       0   31652  263571       0  263571  263207   363.7    0.00  1068.1 15336.4    0.00 15336.4 15323.2   13.11
   15 175    99       0   31651  263562       0  263562  263202   359.9    0.00  1068.1 15336.0    0.00 15336.0 15323.0   13.02
   15 176   100       0   31651  263554       0  263554  263198   355.9    0.00  1068.0 15335.6    0.00 15335.6 15322.7   12.93
   15 177   101       0   31650  263545       0  263545  263193   351.7    0.00  1068.0 15335.3    0.00 15335.3 15322.4   12.84
   15 178   102       0   31650  263535       0  263535  263188   347.5    0.00  1068.0 15334.9    0.00 15334.9 15322.1   12.74
   15 179   103       0   31649  263526       0  263526  263182   343.6    0.00  1068.0 15334.5    0.00 15334.5 15321.8   12.65
   15 180   104       0   31649  263516       0  263516  263176   339.5    0.00  1068.0 15334.0    0.00 15334.0 15321.5   12.55
   15 181   105       0   31648  263505       0  263505  263170   335.4    0.00  1068.0 15333.5    0.00 15333.5 15321.1   12.45
   15 182   106       0   31647  263494       0  263494  263162   331.1    0.00  1067.9 15333.0    0.00 15333.0 15320.7   12.35
   15 183   107       0   31646  263482       0  263482  263155   327.1    0.00  1067.9 15332.5    0.00 15332.5 15320.2   12.25
   15 184   108       0   31646  263470       0  263470  263147   323.2    0.00  1067.9 15331.9    0.00 15331.9 15319.8   12.15
   15 185   109       0   31645  263458       0  263458  263139   319.4    0.00  1067.9 15331.3    0.00 15331.3 15319.3   12.05
   15 186   110       0   31644  263446       0  263446  263130   315.8    0.00  1067.8 15330.7    0.00 15330.7 15318.8   11.96
   15 187   111       0   31643  263434       0  263434  263121   312.4    0.00  1067.8 15330.1    0.00 15330.1 15318.2   11.87
   15 188   112       0   31643  263422       0  263422  263112   309.2    0.00  1067.8 15329.5    0.00 15329.5 15317.7   11.79
   15 189   113       0   31642  263408       0  263408  263103   305.1    0.00  1067.8 15328.8    0.00 15328.8 15317.1   11.68
   15 190   114       0   31641  263395       0  263395  263095   300.4    0.00  1067.7 15328.2    0.00 15328.2 15316.6   11.56
   15 191   115       0   31640  263384       0  263384  263087   296.7    0.00  1067.7 15327.6    0.00 15327.6 15316.2   11.47
   15 192   116       0   31640  263374       0  263374  263080   293.8    0.00  1067.7 15327.1    0.00 15327.1 15315.8   11.39
   15 193   117       0   31639  263365       0  263365  263074   291.3    0.00  1067.7 15326.7    0.00 15326.7 15315.4   11.32
   15 194   118       0   31639  263358       0  263358  263069   289.2    0.00  1067.7 15326.3    0.00 15326.3 15315.0   11.27
   15 195   119       0   31638  263350       0  263350  263063   287.2    0.00  1067.6 15325.9    0.00 15325.9 15314.7   11.21
   15 196   120       0   31638  263342       0  263342  263057   285.2    0.00  1067.6 15325.5    0.00 15325.5 15314.3   11.15
   15 197   121       0   31637  263334       0  263334  263050   283.1    0.00  1067.6 15325.0    0.00 15325.0 15313.9   11.09
   15 198   122       0   31637  263325       0  263325  263044   281.0    0.00  1067.6 15324.5    0.00 15324.5 15313.5   11.04
   15 199   123       0   31636  263316       0  263316  263037   279.1    0.00  1067.6 15324.0    0.00 15324.0 15313.0   10.98
   15 200   124       0   31636  263307       0  263307  263030   277.2    0.00  1067.6 15323.5    0.00 15323.5 15312.6   10.93
   15 201   125       0   31635  263298       0  263298  263022   275.5    0.00  1067.5 15323.0    0.00 15323.0 15312.1   10.88
   15 202   126       0   31635  263289       0  263289  263015   273.8    0.00  1067.5 15322.5    0.00 15322.5 15311.7   10.83
   15 203   127       0   31634  263280       0  263280  263008   272.2    0.00  1067.5 15322.0    0.00 15322.0 15311.2   10.78
   15 204   128       0   31634  263272       0  263272  263001   270.8    0.00  1067.5 15321.5    0.00 15321.5 15310.7   10.74
   15 205   129       0   31633  263263       0  263263  262994   269.3    0.00  1067.5 15321.0    0.00 15321.0 15310.3   10.70
   15 206   130       0   31633  263255       0  263255  262987   267.9    0.00  1067.5 15320.5    0.00 15320.5 15309.8   10.66
   15 207   131       0   31632  263247       0  263247  262981   266.7    0.00  1067.4 15320.0    0.00 15320.0 15309.4   10.62
   15 208   132       0   31632  263240       0  263240  262975   265.7    0.00  1067.4 15319.6    0.00 15319.6 15309.0   10.59
   15 209   133       0   31631  263234       0  263234  262969   264.3    0.00  1067.4 15319.2    0.00 15319.2 15308.7   10.55
   15 210   134       0   31631  263227       0  263227  262964   263.1    0.00  1067.4 15318.8    0.00 15318.8 15308.3   10.51
   15 211   135       0   31631  263221       0  263221  262959   261.9    0.00  1067.4 15318.5    0.00 15318.5 15308.0   10.48
   15 212   136       0   31630  263216       0  263216  262955   260.9    0.00  1067.4 15318.2    0.00 15318.2 15307.7   10.45
   15 213   137       0   31630  263211       0  263211  262951   260.0    0.00  1067.4 15317.8    0.00 15317.8 15307.4   10.42
   15 214   138       0   31630  263206       0  263206  262947   259.1    0.00  1067.4 15317.5    0.00 15317.5 15307.1   10.39
   15 215   139       0   31630  263201       0  263201  262942   258.3    0.00  1067.3 15317.2    0.00 15317.2 15306.9   10.37
   15 216   140       0   31629  263195       0  263195  262938   257.5    0.00  1067.3 15316.9    0.00 15316.9 15306.5   10.34
   15 217   141       0   31629  263189       0  263189  262933   256.7    0.00  1067.3 15316.5    0.00 15316.5 15306.2   10.32
   15 218   142       0   31629  263183       0  263183  262927   255.9    0.00  1067.3 15316.1    0.00 15316.1 15305.8   10.29
   15 219   143       0   31628  263177       0  263177  262922   255.1    0.00  1067.3 15315.7    0.00 15315.7 15305.5   10.27
   15 220   144       0   31628  263170       0  263170  262916   254.3    0.00  1067.3 15315.3    0.00 15315.3 15305.0   10.24
   15 221   145       0   31628  263162       0  263162  262909   253.3    0.00  1067.3 15314.8    0.00 15314.8 15304.6   10.21
   15 222   146       0   31627  263155       0  263155  262902   252.4    0.00  1067.3 15314.3    0.00 15314.3 15304.2   10.18
   15 223   147       0   31627  263147       0  263147  262896   251.5    0.00  1067.2 15313.9    0.00 15313.9 15303.7   10.15
   15 224   148       0   31626  263140       0  263140  262889   250.7    0.00  1067.2 15313.4    0.00 15313.4 15303.3   10.12
