*SOIL WATER DAILY OUTPUT FILE

*DSSAT Cropping System Model Ver. 4.8.5.000 -release  OCT 27, 2025 22:35:44

*RUN   1        : 1                         WHAPS048 TUDU1501    1
 MODEL          : WHAPS048 - Wheat
 EXPERIMENT     : TUDU1501 WH
 DATA PATH      :
 TREATMENT  1   : 1                         WHAPS048
  
!                                                                                                                                   Soil water content (mm3/mm3) by soil depth (cm):
!                                                                                                                                   0-5    5-15   15-30   30-45   45-60   60-80  80-100 100-150 150-200
@YEAR DOY   DAS    SWTD    SWXD    ROFC    DRNC    PREC    IR#C    IRRC   LATFC    DTWT    MWTD    TDFD    TDFC    ROFD    ROSD    SW1D    SW2D    SW3D    SW4D    SW5D    SW6D    SW7D    SW8D    SW9D
   15 076     0     530     255       0       0       0       0       0       0     200    0.00     0.0     0.0    0.00    0.00   0.236   0.247   0.262   0.276   0.276   0.274   0.274   0.262   0.262
   15 077     1     529     254       0       0       0       0       0       0     200    0.00     0.0     0.0    0.00    0.00   0.229   0.246   0.262   0.276   0.276   0.274   0.274   0.262   0.262
   15 078     2     528     253       0       0       0       0       0       0     200    0.00     0.0     0.0    0.00    0.00   0.209   0.245   0.261   0.276   0.276   0.274   0.274   0.262   0.262
   15 079     3     527     252       0       0       0       0       0       0     200    0.00     0.0     0.0    0.00    0.00   0.192   0.243   0.261   0.276   0.276   0.274   0.274   0.262   0.262
   15 080     4     528     252       0       0       2       0       0       0     200    0.00     0.0     0.0    0.00    0.00   0.216   0.242   0.261   0.276   0.276   0.274   0.274   0.262   0.262
   15 081     5     527     252       0       0       2       0       0       0     200    0.00     0.0     0.0    0.00    0.00   0.201   0.241   0.261   0.276   0.276   0.274   0.274   0.262   0.262
   15 082     6     526     251       0       0       2       0       0       0     200    0.00     0.0     0.0    0.00    0.00   0.185   0.240   0.260   0.275   0.276   0.274   0.274   0.262   0.262
   15 083     7     525     250       0       0       2       0       0       0     200    0.00     0.0     0.0    0.00    0.00   0.170   0.239   0.260   0.275   0.276   0.274   0.274   0.262   0.262
   15 084     8     524     249       0       0       2       0       0       0     200    0.00     0.0     0.0    0.00    0.00   0.156   0.237   0.260   0.275   0.276   0.274   0.274   0.262   0.262
   15 085     9     524     248       0       0       2       0       0       0     200    0.00     0.0     0.0    0.00    0.00   0.148   0.237   0.260   0.275   0.276   0.274   0.274   0.262   0.262
   15 086    10     524     249       0       0       3       0       0       0     200    0.00     0.0     0.0    0.00    0.00   0.156   0.235   0.260   0.275   0.276   0.274   0.274   0.262   0.262
   15 087    11     523     248       0       0       3       0       0       0     200    0.00     0.0     0.0    0.00    0.00   0.144   0.234   0.259   0.275   0.275   0.274   0.274   0.262   0.262
   15 088    12     522     247       0       0       3       0       0       0     200    0.00     0.0     0.0    0.00    0.00   0.133   0.233   0.259   0.275   0.275   0.274   0.274   0.262   0.262
   15 089    13     529     253       0       0      10       0       0       0     200    0.00     0.0     0.0    0.00    0.00   0.243   0.241   0.259   0.275   0.275   0.274   0.274   0.262   0.262
   15 090    14     530     255       0       0      13       0       0       0     200    0.00     0.0     0.0    0.00    0.00   0.267   0.249   0.261   0.274   0.275   0.273   0.273   0.262   0.262
   15 091    15     531     255       0       0      16       0       0       0     200    0.00     0.0     0.0    0.00    0.00   0.277   0.255   0.263   0.276   0.274   0.272   0.273   0.261   0.261
   15 092    16     534     258       0       0      20       0       0       0     200    0.00     0.0     0.0    0.00    0.00   0.298   0.263   0.268   0.278   0.276   0.272   0.272   0.261   0.261
   15 093    17     529     254       0       1      20       0       0       0     200    0.00     0.0     0.0    0.00    0.00   0.253   0.250   0.262   0.276   0.274   0.273   0.273   0.261   0.261
   15 094    18     532     257       0       1      24       0       0       0     200    0.00     0.0     0.0    0.00    0.00   0.285   0.258   0.265   0.277   0.276   0.272   0.273   0.261   0.261
   15 095    19     530     254       0       1      24       0       0       0     200    0.00     0.0     0.0    0.00    0.00   0.252   0.249   0.262   0.276   0.275   0.273   0.273   0.261   0.262
   15 096    20     528     253       0       1      24       0       0       0     200    0.00     0.0     0.0    0.00    0.00   0.238   0.247   0.261   0.275   0.275   0.273   0.273   0.261   0.261
   15 097    21     525     250       0       1      24       0       0       0     200    0.00     0.0     0.0    0.00    0.00   0.225   0.242   0.258   0.273   0.274   0.272   0.272   0.260   0.261
   15 098    22     524     248       0       1      24       0       0       0     200    0.00     0.0     0.0    0.00    0.00   0.207   0.241   0.258   0.273   0.274   0.272   0.272   0.260   0.261
   15 099    23     523     247       0       1      24       0       0       0     200    0.00     0.0     0.0    0.00    0.00   0.189   0.239   0.257   0.273   0.273   0.272   0.272   0.260   0.261
   15 100    24     522     246       0       1      24       0       0       0     200    0.00     0.0     0.0    0.00    0.00   0.173   0.238   0.257   0.273   0.273   0.272   0.272   0.260   0.261
   15 101    25     521     245       0       1      24       0       0       0     200    0.00     0.0     0.0    0.00    0.00   0.158   0.236   0.257   0.273   0.273   0.272   0.272   0.260   0.261
   15 102    26     520     245       0       1      24       0       0       0     200    0.00     0.0     0.0    0.00    0.00   0.145   0.235   0.257   0.273   0.273   0.272   0.272   0.260   0.261
   15 103    27     519     244       0       1      24       0       0       0     200    0.00     0.0     0.0    0.00    0.00   0.134   0.233   0.256   0.273   0.273   0.272   0.272   0.260   0.261
   15 104    28     518     243       0       1      24       0       0       0     200    0.00     0.0     0.0    0.00    0.00   0.123   0.231   0.256   0.272   0.273   0.272   0.272   0.260   0.261
   15 105    29     518     242       0       1      24       0       0       0     200    0.00     0.0     0.0    0.00    0.00   0.114   0.228   0.256   0.272   0.273   0.272   0.272   0.260   0.261
   15 106    30     517     241       0       1      24       0       0       0     200    0.00     0.0     0.0    0.00    0.00   0.105   0.224   0.255   0.272   0.273   0.272   0.272   0.260   0.261
   15 107    31     539     263       0       1      48       0       0       0     200    0.00     0.0     0.0    0.22    0.00   0.313   0.297   0.276   0.281   0.278   0.271   0.271   0.260   0.260
   15 108    32     533     257       0       4      48       0       0       0     200    0.00     0.0     0.0    0.00    0.00   0.260   0.267   0.266   0.277   0.277   0.273   0.273   0.261   0.261
   15 109    33     528     253       0       5      48       0       0       0     200    0.00     0.0     0.0    0.00    0.00   0.232   0.251   0.261   0.274   0.275   0.272   0.273   0.261   0.261
   15 110    34     524     248       0       5      48       0       0       0     200    0.00     0.0     0.0    0.00    0.00   0.214   0.242   0.258   0.272   0.273   0.271   0.271   0.260   0.260
   15 111    35     522     247       0       5      48       0       0       0     200    0.00     0.0     0.0    0.00    0.00   0.192   0.240   0.258   0.272   0.273   0.271   0.271   0.260   0.260
   15 112    36     521     245       0       5      48       0       0       0     200    0.00     0.0     0.0    0.00    0.00   0.171   0.236   0.257   0.272   0.273   0.271   0.271   0.260   0.260
   15 113    37     519     244       0       5      48       0       0       0     200    0.00     0.0     0.0    0.00    0.00   0.152   0.231   0.256   0.272   0.273   0.271   0.271   0.260   0.260
   15 114    38     518     243       0       5      48       0       0       0     200    0.00     0.0     0.0    0.00    0.00   0.139   0.229   0.255   0.271   0.273   0.271   0.271   0.260   0.260
   15 115    39     517     242       0       5      49       0       0       0     200    0.00     0.0     0.0    0.00    0.00   0.144   0.223   0.254   0.271   0.273   0.271   0.271   0.260   0.260
   15 116    40     517     241       0       5      50       0       0       0     200    0.00     0.0     0.0    0.00    0.00   0.150   0.218   0.252   0.271   0.272   0.271   0.271   0.260   0.260
   15 117    41     520     245       0       5      55       0       0       0     200    0.00     0.0     0.0    0.00    0.00   0.225   0.217   0.250   0.271   0.272   0.271   0.271   0.260   0.260
   15 118    42     524     248       0       5      61       0       0       0     200    0.00     0.0     0.0    0.00    0.00   0.278   0.235   0.248   0.270   0.272   0.270   0.271   0.260   0.260
   15 119    43     521     245       0       5      61       0       0       0     200    0.00     0.0     0.0    0.00    0.00   0.244   0.242   0.245   0.268   0.271   0.269   0.270   0.259   0.260
   15 120    44     519     244       0       5      62       0       0       0     200    0.00     0.0     0.0    0.00    0.00   0.236   0.243   0.243   0.267   0.270   0.269   0.269   0.259   0.259
   15 121    45     545     269       3       5      92       0       0       0     200    0.00     0.0     0.0    2.98    0.00   0.309   0.317   0.301   0.291   0.280   0.272   0.269   0.258   0.259
   15 122    46     544     269       3       5      93       0       0       0     200    0.00     0.0     0.0    0.00    0.00   0.281   0.290   0.295   0.300   0.290   0.278   0.273   0.258   0.259
   15 123    47     554     278       3       5     104       0       0       0     200    0.00     0.0     0.0    0.08    0.00   0.311   0.311   0.299   0.307   0.298   0.284   0.279   0.260   0.259
   15 124    48     541     266       3      15     104       0       0       0     200    0.00     0.0     0.0    0.00    0.00   0.262   0.275   0.278   0.290   0.286   0.278   0.276   0.262   0.262
   15 125    49     542     266       3      15     107       0       0       0     200    0.00     0.0     0.0    0.00    0.00   0.271   0.266   0.276   0.290   0.288   0.280   0.278   0.263   0.261
   15 126    50     562     286       6      15     132       0       0       0     200    0.00     0.0     0.0    2.43    0.00   0.302   0.314   0.314   0.309   0.299   0.286   0.282   0.264   0.263
   15 127    51     544     269       6      30     132       0       0       0     200    0.00     0.0     0.0    0.00    0.00   0.257   0.276   0.285   0.291   0.286   0.279   0.277   0.263   0.263
   15 128    52     534     258       6      37     132       0       0       0     200    0.00     0.0     0.0    0.00    0.00   0.228   0.254   0.269   0.281   0.280   0.276   0.275   0.263   0.263
   15 129    53     534     259       6      37     136       0       0       0     200    0.00     0.0     0.0    0.00    0.00   0.254   0.250   0.264   0.278   0.279   0.276   0.276   0.263   0.262
   15 130    54     531     255       6      37     136       0       0       0     200    0.00     0.0     0.0    0.00    0.00   0.234   0.244   0.261   0.276   0.276   0.276   0.275   0.263   0.262
   15 131    55     527     251       6      37     136       0       0       0     200    0.00     0.0     0.0    0.00    0.00   0.216   0.237   0.256   0.272   0.274   0.275   0.275   0.263   0.262
   15 132    56     522     246       6      37     136       0       0       0     200    0.00     0.0     0.0    0.00    0.00   0.194   0.228   0.249   0.267   0.270   0.275   0.274   0.262   0.261
   15 133    57     522     246       6      37     142       0       0       0     200    0.00     0.0     0.0    0.00    0.00   0.252   0.232   0.240   0.260   0.264   0.274   0.274   0.262   0.261
   15 134    58     518     243       6      37     142       0       0       0     200    0.00     0.0     0.0    0.00    0.00   0.230   0.230   0.236   0.257   0.261   0.274   0.273   0.262   0.261
   15 135    59     516     241       6      37     142       0       0       0     200    0.00     0.0     0.0    0.00    0.00   0.218   0.227   0.233   0.255   0.259   0.274   0.273   0.262   0.261
   15 136    60     515     239       6      37     142       0       0       0     200    0.00     0.0     0.0    0.00    0.00   0.198   0.224   0.232   0.254   0.258   0.273   0.273   0.262   0.261
   15 137    61     512     236       6      37     143       0       0       0     200    0.00     0.0     0.0    0.00    0.00   0.195   0.217   0.228   0.250   0.255   0.273   0.273   0.262   0.261
   15 138    62     510     234       6      37     143       0       0       0     200    0.00     0.0     0.0    0.00    0.00   0.177   0.213   0.226   0.248   0.253   0.273   0.273   0.262   0.261
   15 139    63     522     246       6      37     159       0       0       0     200    0.00     0.0     0.0    0.01    0.00   0.309   0.266   0.239   0.242   0.248   0.272   0.273   0.262   0.261
   15 140    64     539     263       7      37     179       0       0       0     200    0.00     0.0     0.0    1.50    0.00   0.316   0.318   0.290   0.271   0.247   0.271   0.273   0.262   0.261
   15 141    65     539     264       7      37     180       0       0       0     200    0.00     0.0     0.0    0.00    0.00   0.289   0.293   0.291   0.288   0.259   0.271   0.273   0.261   0.261
   15 142    66     536     260       7      40     180       0       0       0     200    0.00     0.0     0.0    0.00    0.00   0.259   0.268   0.276   0.281   0.275   0.274   0.274   0.262   0.262
   15 143    67     537     262       7      40     183       0       0       0     200    0.00     0.0     0.0    0.00    0.00   0.275   0.264   0.273   0.284   0.279   0.276   0.274   0.262   0.262
   15 144    68     537     261       7      40     184       0       0       0     200    0.00     0.0     0.0    0.00    0.00   0.264   0.260   0.271   0.284   0.281   0.277   0.275   0.262   0.262
   15 145    69     533     257       7      43     184       0       0       0     200    0.00     0.0     0.0    0.00    0.00   0.246   0.252   0.265   0.279   0.278   0.275   0.275   0.262   0.262
   15 146    70     531     255       7      44     184       0       0       0     200    0.00     0.0     0.0    0.00    0.00   0.236   0.247   0.262   0.277   0.276   0.275   0.275   0.262   0.262
   15 147    71     530     254       7      44     184       0       0       0     200    0.00     0.0     0.0    0.00    0.00   0.233   0.245   0.261   0.277   0.275   0.274   0.275   0.262   0.262
   15 148    72     529     253       7      44     184       0       0       0     200    0.00     0.0     0.0    0.00    0.00   0.228   0.243   0.259   0.275   0.274   0.274   0.275   0.262   0.262
   15 149    73     526     250       7      44     184       0       0       0     200    0.00     0.0     0.0    0.00    0.00   0.219   0.237   0.256   0.272   0.271   0.273   0.275   0.262   0.262
   15 150    74     524     248       7      44     184       0       0       0     200    0.00     0.0     0.0    0.00    0.00   0.211   0.233   0.253   0.270   0.269   0.272   0.275   0.262   0.262
   15 151    75     522     247       7      44     184       0       0       0     200    0.00     0.0     0.0    0.00    0.00   0.207   0.231   0.251   0.268   0.268   0.272   0.274   0.262   0.261
   15 152    76     520     245       7      44     184       0       0       0     200    0.00     0.0     0.0    0.00    0.00   0.201   0.228   0.249   0.266   0.266   0.271   0.274   0.261   0.261
   15 153    77     518     242       7      44     184       0       0       0     200    0.00     0.0     0.0    0.00    0.00   0.192   0.223   0.246   0.263   0.263   0.270   0.274   0.261   0.261
   15 154    78     515     239       7      44     184       0       0       0     200    0.00     0.0     0.0    0.00    0.00   0.183   0.218   0.242   0.260   0.260   0.269   0.274   0.261   0.261
   15 155    79     510     234       7      44     184       0       0       0     200    0.00     0.0     0.0    0.00    0.00   0.161   0.209   0.236   0.254   0.254   0.267   0.274   0.261   0.261
   15 156    80     505     229       7      44     184       0       0       0     200    0.00     0.0     0.0    0.00    0.00   0.142   0.200   0.230   0.247   0.248   0.265   0.274   0.261   0.261
   15 157    81     502     227       7      44     187       0       0       0     200    0.00     0.0     0.0    0.00    0.00   0.186   0.191   0.223   0.240   0.241   0.263   0.273   0.261   0.261
   15 158    82     496     220       7      44     187       0       0       0     200    0.00     0.0     0.0    0.00    0.00   0.160   0.182   0.216   0.233   0.233   0.260   0.273   0.261   0.261
   15 159    83     508     232       7      44     203       0       0       0     200    0.00     0.0     0.0    0.00    0.00   0.311   0.248   0.216   0.228   0.228   0.257   0.272   0.261   0.261
   15 160    84     507     231       7      44     203       0       0       0     200    0.00     0.0     0.0    0.00    0.00   0.267   0.245   0.227   0.227   0.227   0.257   0.272   0.261   0.261
   15 161    85     506     231       7      44     203       0       0       0     200    0.00     0.0     0.0    0.00    0.00   0.250   0.246   0.231   0.226   0.227   0.257   0.272   0.261   0.261
   15 162    86     505     229       7      44     203       0       0       0     200    0.00     0.0     0.0    0.00    0.00   0.236   0.244   0.231   0.225   0.225   0.256   0.272   0.261   0.261
   15 163    87     502     226       7      44     203       0       0       0     200    0.00     0.0     0.0    0.00    0.00   0.224   0.238   0.228   0.223   0.223   0.255   0.271   0.261   0.261
   15 164    88     502     227       7      44     211       0       0       0     200    0.00     0.0     0.0    0.00    0.00   0.286   0.243   0.228   0.216   0.216   0.251   0.270   0.261   0.261
   15 165    89     517     241       8      44     231       0       0       0     200    0.00     0.0     0.0    1.12    0.00   0.300   0.311   0.271   0.227   0.213   0.249   0.269   0.260   0.261
   15 166    90     532     256      10      44     252       0       0       0     200    0.00     0.0     0.0    2.10    0.00   0.306   0.312   0.318   0.279   0.217   0.247   0.268   0.260   0.261
   15 167    91     531     255      10      44     252       0       0       0     200    0.00     0.0     0.0    0.00    0.00   0.267   0.278   0.289   0.278   0.276   0.248   0.268   0.260   0.260
   15 168    92     528     253      10      44     252       0       0       0     200    0.00     0.0     0.0    0.00    0.00   0.242   0.258   0.272   0.276   0.274   0.269   0.267   0.260   0.260
   15 169    93     537     261      10      44     263       0       0       0     200    0.00     0.0     0.0    0.00    0.00   0.312   0.283   0.277   0.282   0.277   0.270   0.266   0.260   0.260
   15 170    94     534     258      10      45     263       0       0       0     200    0.00     0.0     0.0    0.00    0.00   0.268   0.262   0.268   0.278   0.275   0.273   0.274   0.262   0.262
   15 171    95     531     256      10      46     263       0       0       0     200    0.00     0.0     0.0    0.00    0.00   0.248   0.252   0.264   0.276   0.275   0.273   0.274   0.262   0.262
   15 172    96     530     254      10      47     263       0       0       0     200    0.00     0.0     0.0    0.00    0.00   0.237   0.247   0.262   0.275   0.275   0.273   0.274   0.262   0.262
   15 173    97     538     262      10      47     273       0       0       0     200    0.00     0.0     0.0    0.00    0.00   0.314   0.273   0.269   0.278   0.277   0.273   0.273   0.262   0.262
   15 174    98     537     261      10      47     275       0       0       0     200    0.00     0.0     0.0    0.00    0.00   0.292   0.269   0.272   0.281   0.278   0.275   0.272   0.262   0.262
   15 175    99     532     256      10      50     275       0       0       0     200    0.00     0.0     0.0    0.00    0.00   0.256   0.254   0.265   0.276   0.276   0.274   0.273   0.262   0.262
   15 176   100     528     252      10      50     275       0       0       0     200    0.00     0.0     0.0    0.00    0.00   0.234   0.244   0.260   0.273   0.272   0.272   0.273   0.262   0.262
   15 177   101     523     247      10      50     275       0       0       0     200    0.00     0.0     0.0    0.00    0.00   0.209   0.236   0.255   0.268   0.268   0.270   0.272   0.262   0.262
   15 178   102     517     242      10      50     275       0       0       0     200    0.00     0.0     0.0    0.00    0.00   0.187   0.227   0.249   0.262   0.262   0.268   0.270   0.262   0.262
   15 179   103     514     239      10      50     275       0       0       0     200    0.00     0.0     0.0    0.00    0.00   0.171   0.222   0.246   0.259   0.259   0.266   0.269   0.262   0.262
   15 180   104     510     235      10      50     275       0       0       0     200    0.00     0.0     0.0    0.00    0.00   0.153   0.216   0.242   0.255   0.255   0.265   0.268   0.262   0.262
   15 181   105     505     229      10      50     275       0       0       0     200    0.00     0.0     0.0    0.00    0.00   0.135   0.207   0.236   0.249   0.249   0.262   0.266   0.262   0.262
   15 182   106     497     222      10      50     275       0       0       0     200    0.00     0.0     0.0    0.00    0.00   0.119   0.195   0.227   0.240   0.240   0.257   0.262   0.262   0.262
   15 183   107     490     215      10      50     275       0       0       0     200    0.00     0.0     0.0    0.00    0.00   0.108   0.184   0.219   0.232   0.232   0.252   0.259   0.262   0.262
   15 184   108     483     208      10      50     275       0       0       0     200    0.00     0.0     0.0    0.00    0.00   0.101   0.173   0.210   0.224   0.224   0.247   0.255   0.262   0.262
   15 185   109     477     201      10      50     275       0       0       0     200    0.00     0.0     0.0    0.00    0.00   0.095   0.164   0.202   0.216   0.216   0.241   0.251   0.262   0.262
   15 186   110     470     195      10      50     275       0       0       0     200    0.00     0.0     0.0    0.00    0.00   0.090   0.156   0.195   0.209   0.209   0.235   0.247   0.262   0.262
   15 187   111     464     188      10      50     275       0       0       0     200    0.00     0.0     0.0    0.00    0.00   0.085   0.149   0.188   0.202   0.202   0.229   0.243   0.262   0.262
   15 188   112     464     188      10      50     279       0       0       0     200    0.00     0.0     0.0    0.00    0.00   0.156   0.145   0.183   0.198   0.198   0.225   0.239   0.262   0.262
   15 189   113     463     188      10      50     285       0       0       0     200    0.00     0.0     0.0    0.00    0.00   0.232   0.149   0.178   0.192   0.192   0.219   0.235   0.262   0.262
   15 190   114     461     185      10      50     285       0       0       0     200    0.00     0.0     0.0    0.00    0.00   0.211   0.147   0.176   0.191   0.191   0.217   0.234   0.262   0.262
   15 191   115     458     182      10      50     285       0       0       0     200    0.00     0.0     0.0    0.00    0.00   0.184   0.145   0.175   0.189   0.189   0.215   0.232   0.262   0.262
   15 192   116     453     177      10      50     285       0       0       0     200    0.00     0.0     0.0    0.00    0.00   0.151   0.141   0.171   0.185   0.186   0.211   0.229   0.262   0.262
   15 193   117     446     170      10      50     285       0       0       0     200    0.00     0.0     0.0    0.00    0.00   0.122   0.136   0.165   0.180   0.180   0.204   0.223   0.262   0.262
   15 194   118     442     166      10      50     286       0       0       0     200    0.00     0.0     0.0    0.00    0.00   0.131   0.132   0.161   0.176   0.176   0.198   0.218   0.262   0.262
   15 195   119     440     165      10      50     286       0       0       0     200    0.00     0.0     0.0    0.00    0.00   0.120   0.131   0.160   0.175   0.175   0.197   0.217   0.262   0.262
   15 196   120     437     162      10      50     286       0       0       0     200    0.00     0.0     0.0    0.00    0.00   0.109   0.129   0.158   0.173   0.173   0.194   0.214   0.262   0.262
   15 197   121     433     158      10      50     286       0       0       0     200    0.00     0.0     0.0    0.00    0.00   0.102   0.126   0.155   0.169   0.170   0.190   0.209   0.261   0.262
   15 198   122     428     152      10      50     286       0       0       0     200    0.00     0.0     0.0    0.00    0.00   0.096   0.123   0.150   0.165   0.165   0.183   0.201   0.261   0.262
   15 199   123     423     147      10      50     286       0       0       0     200    0.00     0.0     0.0    0.00    0.00   0.090   0.121   0.147   0.161   0.162   0.178   0.194   0.261   0.262
   15 200   124     420     145      10      50     286       0       0       0     200    0.00     0.0     0.0    0.00    0.00   0.085   0.120   0.145   0.159   0.160   0.175   0.190   0.261   0.262
   15 201   125     418     143      10      50     286       0       0       0     200    0.00     0.0     0.0    0.00    0.00   0.080   0.119   0.144   0.158   0.158   0.172   0.186   0.261   0.262
   15 202   126     416     141      10      50     286       0       0       0     200    0.00     0.0     0.0    0.00    0.00   0.076   0.119   0.142   0.157   0.157   0.170   0.183   0.261   0.262
   15 203   127     414     138      10      50     286       0       0       0     200    0.00     0.0     0.0    0.00    0.00   0.072   0.118   0.141   0.155   0.155   0.167   0.178   0.261   0.262
   15 204   128     412     137      10      50     287       0       0       0     200    0.00     0.0     0.0    0.00    0.00   0.087   0.118   0.138   0.152   0.153   0.162   0.178   0.261   0.262
   15 205   129     411     136      10      50     287       0       0       0     200    0.00     0.0     0.0    0.00    0.00   0.083   0.117   0.137   0.152   0.152   0.161   0.178   0.261   0.262
   15 206   130     410     134      10      50     287       0       0       0     200    0.00     0.0     0.0    0.00    0.00   0.078   0.117   0.136   0.150   0.151   0.158   0.178   0.261   0.262
   15 207   131     409     133      10      50     287       0       0       0     200    0.00     0.0     0.0    0.00    0.00   0.074   0.116   0.135   0.149   0.150   0.155   0.178   0.261   0.262
   15 208   132     410     135      10      50     290       0       0       0     200    0.00     0.0     0.0    0.00    0.00   0.128   0.116   0.134   0.148   0.149   0.153   0.178   0.261   0.262
   15 209   133     410     134      10      50     291       0       0       0     200    0.00     0.0     0.0    0.00    0.00   0.134   0.115   0.134   0.148   0.148   0.152   0.176   0.261   0.262
   15 210   134     410     134      10      50     292       0       0       0     200    0.00     0.0     0.0    0.00    0.00   0.140   0.115   0.134   0.148   0.148   0.152   0.175   0.261   0.262
   15 211   135     409     133      10      50     292       0       0       0     200    0.00     0.0     0.0    0.00    0.00   0.126   0.114   0.134   0.148   0.148   0.152   0.174   0.261   0.262
   15 212   136     408     132      10      50     292       0       0       0     200    0.00     0.0     0.0    0.00    0.00   0.114   0.114   0.134   0.148   0.148   0.151   0.173   0.261   0.262
   15 213   137     407     131      10      50     292       0       0       0     200    0.00     0.0     0.0    0.00    0.00   0.105   0.113   0.133   0.148   0.148   0.151   0.171   0.261   0.262
   15 214   138     406     131      10      50     292       0       0       0     200    0.00     0.0     0.0    0.00    0.00   0.099   0.113   0.133   0.148   0.148   0.151   0.171   0.261   0.262
   15 215   139     406     130      10      50     292       0       0       0     200    0.00     0.0     0.0    0.00    0.00   0.093   0.112   0.133   0.147   0.148   0.150   0.171   0.261   0.262
   15 216   140     405     129      10      50     292       0       0       0     200    0.00     0.0     0.0    0.00    0.00   0.087   0.112   0.133   0.147   0.147   0.148   0.171   0.261   0.262
   15 217   141     405     129      10      50     292       0       0       0     200    0.00     0.0     0.0    0.00    0.00   0.082   0.112   0.133   0.147   0.147   0.148   0.171   0.261   0.262
   15 218   142     404     129      10      50     292       0       0       0     200    0.00     0.0     0.0    0.00    0.00   0.078   0.111   0.133   0.147   0.147   0.148   0.171   0.261   0.262
   15 219   143     404     128      10      50     292       0       0       0     200    0.00     0.0     0.0    0.00    0.00   0.074   0.111   0.133   0.147   0.147   0.148   0.171   0.261   0.262
   15 220   144     405     129      10      50     293       0       0       0     200    0.00     0.0     0.0    0.00    0.00   0.089   0.110   0.132   0.147   0.147   0.148   0.171   0.261   0.262
   15 221   145     404     129      10      50     293       0       0       0     200    0.00     0.0     0.0    0.00    0.00   0.084   0.110   0.132   0.147   0.147   0.148   0.171   0.261   0.262
   15 222   146     404     129      10      50     293       0       0       0     200    0.00     0.0     0.0    0.00    0.00   0.079   0.109   0.132   0.147   0.147   0.148   0.171   0.261   0.262
   15 223   147     404     128      10      50     293       0       0       0     200    0.00     0.0     0.0    0.00    0.00   0.075   0.109   0.132   0.147   0.147   0.148   0.171   0.261   0.262
   15 224   148     404     128      10      50     293       0       0       0     200    0.00     0.0     0.0    0.00    0.00   0.071   0.109   0.132   0.147   0.147   0.148   0.171   0.261   0.262

*DSSAT Cropping System Model Ver. 4.8.5.000 -release  OCT 27, 2025 22:35:44

*RUN   2        : 2                         WHAPS048 TUDU1501    2
 MODEL          : WHAPS048 - Wheat
 EXPERIMENT     : TUDU1501 WH
 DATA PATH      :
 TREATMENT  2   : 2                         WHAPS048
  
!                                                                                                                                   Soil water content (mm3/mm3) by soil depth (cm):
!                                                                                                                                   0-5    5-15   15-30   30-45   45-60   60-80  80-100 100-150 150-200
@YEAR DOY   DAS    SWTD    SWXD    ROFC    DRNC    PREC    IR#C    IRRC   LATFC    DTWT    MWTD    TDFD    TDFC    ROFD    ROSD    SW1D    SW2D    SW3D    SW4D    SW5D    SW6D    SW7D    SW8D    SW9D
   15 076     0     530     255       0       0       0       0       0       0     200    0.00     0.0     0.0    0.00    0.00   0.236   0.247   0.262   0.276   0.276   0.274   0.274   0.262   0.262
   15 077     1     529     254       0       0       0       0       0       0     200    0.00     0.0     0.0    0.00    0.00   0.229   0.246   0.262   0.276   0.276   0.274   0.274   0.262   0.262
   15 078     2     528     253       0       0       0       0       0       0     200    0.00     0.0     0.0    0.00    0.00   0.209   0.245   0.261   0.276   0.276   0.274   0.274   0.262   0.262
   15 079     3     527     252       0       0       0       0       0       0     200    0.00     0.0     0.0    0.00    0.00   0.192   0.243   0.261   0.276   0.276   0.274   0.274   0.262   0.262
   15 080     4     528     252       0       0       2       0       0       0     200    0.00     0.0     0.0    0.00    0.00   0.216   0.242   0.261   0.276   0.276   0.274   0.274   0.262   0.262
   15 081     5     527     252       0       0       2       0       0       0     200    0.00     0.0     0.0    0.00    0.00   0.201   0.241   0.261   0.276   0.276   0.274   0.274   0.262   0.262
   15 082     6     526     251       0       0       2       0       0       0     200    0.00     0.0     0.0    0.00    0.00   0.185   0.240   0.260   0.275   0.276   0.274   0.274   0.262   0.262
   15 083     7     525     250       0       0       2       0       0       0     200    0.00     0.0     0.0    0.00    0.00   0.170   0.239   0.260   0.275   0.276   0.274   0.274   0.262   0.262
   15 084     8     524     249       0       0       2       0       0       0     200    0.00     0.0     0.0    0.00    0.00   0.156   0.237   0.260   0.275   0.276   0.274   0.274   0.262   0.262
   15 085     9     524     248       0       0       2       0       0       0     200    0.00     0.0     0.0    0.00    0.00   0.148   0.237   0.260   0.275   0.276   0.274   0.274   0.262   0.262
   15 086    10     524     249       0       0       3       0       0       0     200    0.00     0.0     0.0    0.00    0.00   0.156   0.235   0.260   0.275   0.276   0.274   0.274   0.262   0.262
   15 087    11     523     248       0       0       3       0       0       0     200    0.00     0.0     0.0    0.00    0.00   0.144   0.234   0.259   0.275   0.275   0.274   0.274   0.262   0.262
   15 088    12     522     247       0       0       3       0       0       0     200    0.00     0.0     0.0    0.00    0.00   0.133   0.233   0.259   0.275   0.275   0.274   0.274   0.262   0.262
   15 089    13     529     253       0       0      10       0       0       0     200    0.00     0.0     0.0    0.00    0.00   0.243   0.241   0.259   0.275   0.275   0.274   0.274   0.262   0.262
   15 090    14     530     255       0       0      13       0       0       0     200    0.00     0.0     0.0    0.00    0.00   0.267   0.249   0.261   0.274   0.275   0.273   0.273   0.262   0.262
   15 091    15     531     255       0       0      16       0       0       0     200    0.00     0.0     0.0    0.00    0.00   0.277   0.255   0.263   0.276   0.274   0.272   0.273   0.261   0.261
   15 092    16     534     258       0       0      20       0       0       0     200    0.00     0.0     0.0    0.00    0.00   0.298   0.263   0.268   0.278   0.276   0.272   0.272   0.261   0.261
   15 093    17     529     254       0       1      20       0       0       0     200    0.00     0.0     0.0    0.00    0.00   0.253   0.250   0.262   0.276   0.274   0.273   0.273   0.261   0.261
   15 094    18     532     257       0       1      24       0       0       0     200    0.00     0.0     0.0    0.00    0.00   0.285   0.258   0.265   0.277   0.276   0.272   0.273   0.261   0.261
   15 095    19     530     254       0       1      24       0       0       0     200    0.00     0.0     0.0    0.00    0.00   0.252   0.249   0.262   0.276   0.275   0.273   0.273   0.261   0.262
   15 096    20     528     253       0       1      24       0       0       0     200    0.00     0.0     0.0    0.00    0.00   0.238   0.247   0.261   0.275   0.275   0.273   0.273   0.261   0.261
   15 097    21     525     250       0       1      24       0       0       0     200    0.00     0.0     0.0    0.00    0.00   0.225   0.242   0.258   0.273   0.274   0.272   0.272   0.260   0.261
   15 098    22     524     248       0       1      24       0       0       0     200    0.00     0.0     0.0    0.00    0.00   0.207   0.241   0.258   0.273   0.274   0.272   0.272   0.260   0.261
   15 099    23     523     247       0       1      24       0       0       0     200    0.00     0.0     0.0    0.00    0.00   0.189   0.239   0.257   0.273   0.273   0.272   0.272   0.260   0.261
   15 100    24     522     246       0       1      24       0       0       0     200    0.00     0.0     0.0    0.00    0.00   0.173   0.238   0.257   0.273   0.273   0.272   0.272   0.260   0.261
   15 101    25     521     245       0       1      24       0       0       0     200    0.00     0.0     0.0    0.00    0.00   0.158   0.236   0.257   0.273   0.273   0.272   0.272   0.260   0.261
   15 102    26     520     245       0       1      24       0       0       0     200    0.00     0.0     0.0    0.00    0.00   0.145   0.235   0.257   0.273   0.273   0.272   0.272   0.260   0.261
   15 103    27     519     244       0       1      24       0       0       0     200    0.00     0.0     0.0    0.00    0.00   0.134   0.233   0.256   0.273   0.273   0.272   0.272   0.260   0.261
   15 104    28     518     243       0       1      24       0       0       0     200    0.00     0.0     0.0    0.00    0.00   0.123   0.231   0.256   0.272   0.273   0.272   0.272   0.260   0.261
   15 105    29     518     242       0       1      24       0       0       0     200    0.00     0.0     0.0    0.00    0.00   0.114   0.228   0.256   0.272   0.273   0.272   0.272   0.260   0.261
   15 106    30     517     241       0       1      24       0       0       0     200    0.00     0.0     0.0    0.00    0.00   0.105   0.224   0.255   0.272   0.273   0.272   0.272   0.260   0.261
   15 107    31     539     263       0       1      48       0       0       0     200    0.00     0.0     0.0    0.22    0.00   0.313   0.297   0.276   0.281   0.278   0.271   0.271   0.260   0.260
   15 108    32     533     257       0       4      48       0       0       0     200    0.00     0.0     0.0    0.00    0.00   0.260   0.267   0.266   0.277   0.277   0.273   0.273   0.261   0.261
   15 109    33     528     253       0       5      48       0       0       0     200    0.00     0.0     0.0    0.00    0.00   0.232   0.251   0.261   0.274   0.275   0.272   0.273   0.261   0.261
   15 110    34     524     248       0       5      48       0       0       0     200    0.00     0.0     0.0    0.00    0.00   0.214   0.242   0.258   0.272   0.273   0.271   0.271   0.260   0.260
   15 111    35     522     247       0       5      48       0       0       0     200    0.00     0.0     0.0    0.00    0.00   0.192   0.240   0.258   0.272   0.273   0.271   0.271   0.260   0.260
   15 112    36     521     245       0       5      48       0       0       0     200    0.00     0.0     0.0    0.00    0.00   0.171   0.236   0.257   0.272   0.273   0.271   0.271   0.260   0.260
   15 113    37     519     244       0       5      48       0       0       0     200    0.00     0.0     0.0    0.00    0.00   0.152   0.231   0.256   0.272   0.273   0.271   0.271   0.260   0.260
   15 114    38     518     243       0       5      48       0       0       0     200    0.00     0.0     0.0    0.00    0.00   0.139   0.229   0.255   0.271   0.273   0.271   0.271   0.260   0.260
   15 115    39     517     242       0       5      49       0       0       0     200    0.00     0.0     0.0    0.00    0.00   0.144   0.223   0.254   0.271   0.273   0.271   0.271   0.260   0.260
   15 116    40     517     241       0       5      50       0       0       0     200    0.00     0.0     0.0    0.00    0.00   0.150   0.218   0.252   0.271   0.272   0.271   0.271   0.260   0.260
   15 117    41     520     245       0       5      55       0       0       0     200    0.00     0.0     0.0    0.00    0.00   0.225   0.217   0.250   0.271   0.272   0.271   0.271   0.260   0.260
   15 118    42     524     248       0       5      61       0       0       0     200    0.00     0.0     0.0    0.00    0.00   0.279   0.235   0.248   0.270   0.272   0.270   0.271   0.260   0.260
   15 119    43     521     245       0       5      61       0       0       0     200    0.00     0.0     0.0    0.00    0.00   0.244   0.241   0.245   0.268   0.271   0.269   0.270   0.259   0.260
   15 120    44     519     244       0       5      62       0       0       0     200    0.00     0.0     0.0    0.00    0.00   0.236   0.243   0.243   0.267   0.270   0.269   0.269   0.259   0.259
   15 121    45     545     269       3       5      92       0       0       0     200    0.00     0.0     0.0    2.98    0.00   0.309   0.317   0.301   0.291   0.280   0.272   0.269   0.258   0.259
   15 122    46     544     269       3       5      93       0       0       0     200    0.00     0.0     0.0    0.00    0.00   0.281   0.290   0.295   0.300   0.290   0.278   0.273   0.258   0.259
   15 123    47     554     278       3       5     104       0       0       0     200    0.00     0.0     0.0    0.08    0.00   0.311   0.310   0.299   0.307   0.298   0.284   0.279   0.260   0.259
   15 124    48     541     266       3      15     104       0       0       0     200    0.00     0.0     0.0    0.00    0.00   0.262   0.275   0.278   0.290   0.286   0.278   0.276   0.262   0.262
   15 125    49     542     266       3      15     107       0       0       0     200    0.00     0.0     0.0    0.00    0.00   0.271   0.266   0.276   0.290   0.288   0.280   0.278   0.263   0.261
   15 126    50     562     286       6      15     132       0       0       0     200    0.00     0.0     0.0    2.43    0.00   0.302   0.314   0.314   0.309   0.299   0.286   0.282   0.264   0.263
   15 127    51     544     269       6      30     132       0       0       0     200    0.00     0.0     0.0    0.00    0.00   0.257   0.276   0.285   0.291   0.286   0.279   0.277   0.263   0.263
   15 128    52     534     258       6      37     132       0       0       0     200    0.00     0.0     0.0    0.00    0.00   0.228   0.254   0.269   0.281   0.280   0.276   0.275   0.263   0.263
   15 129    53     534     259       6      37     136       0       0       0     200    0.00     0.0     0.0    0.00    0.00   0.254   0.250   0.264   0.278   0.279   0.276   0.276   0.263   0.262
   15 130    54     531     255       6      37     136       0       0       0     200    0.00     0.0     0.0    0.00    0.00   0.234   0.244   0.261   0.276   0.276   0.276   0.275   0.263   0.262
   15 131    55     527     251       6      37     136       0       0       0     200    0.00     0.0     0.0    0.00    0.00   0.217   0.237   0.256   0.272   0.274   0.275   0.275   0.263   0.262
   15 132    56     522     246       6      37     136       0       0       0     200    0.00     0.0     0.0    0.00    0.00   0.195   0.228   0.249   0.267   0.270   0.275   0.274   0.262   0.261
   15 133    57     522     246       6      37     142       0       0       0     200    0.00     0.0     0.0    0.00    0.00   0.253   0.232   0.240   0.260   0.264   0.274   0.274   0.262   0.261
   15 134    58     518     243       6      37     142       0       0       0     200    0.00     0.0     0.0    0.00    0.00   0.230   0.230   0.235   0.256   0.261   0.274   0.273   0.262   0.261
   15 135    59     516     241       6      37     142       0       0       0     200    0.00     0.0     0.0    0.00    0.00   0.219   0.227   0.233   0.254   0.259   0.274   0.273   0.262   0.261
   15 136    60     515     239       6      37     142       0       0       0     200    0.00     0.0     0.0    0.00    0.00   0.199   0.224   0.232   0.253   0.258   0.273   0.273   0.262   0.261
   15 137    61     512     236       6      37     143       0       0       0     200    0.00     0.0     0.0    0.00    0.00   0.196   0.216   0.227   0.249   0.254   0.273   0.273   0.262   0.261
   15 138    62     510     234       6      37     143       0       0       0     200    0.00     0.0     0.0    0.00    0.00   0.177   0.213   0.226   0.247   0.253   0.273   0.273   0.262   0.261
   15 139    63     521     246       6      37     159       0       0       0     200    0.00     0.0     0.0    0.01    0.00   0.308   0.265   0.238   0.242   0.247   0.272   0.273   0.262   0.261
   15 140    64     539     263       7      37     179       0       0       0     200    0.00     0.0     0.0    1.49    0.00   0.316   0.318   0.290   0.270   0.246   0.271   0.273   0.262   0.261
   15 141    65     539     263       7      37     180       0       0       0     200    0.00     0.0     0.0    0.00    0.00   0.289   0.293   0.291   0.287   0.257   0.271   0.273   0.261   0.261
   15 142    66     536     260       7      40     180       0       0       0     200    0.00     0.0     0.0    0.00    0.00   0.259   0.268   0.275   0.281   0.275   0.274   0.274   0.262   0.262
   15 143    67     537     261       7      40     183       0       0       0     200    0.00     0.0     0.0    0.00    0.00   0.275   0.264   0.273   0.283   0.279   0.276   0.274   0.262   0.262
   15 144    68     537     261       7      40     184       0       0       0     200    0.00     0.0     0.0    0.00    0.00   0.264   0.260   0.271   0.284   0.280   0.277   0.275   0.262   0.262
   15 145    69     533     257       7      42     184       0       0       0     200    0.00     0.0     0.0    0.00    0.00   0.246   0.252   0.265   0.279   0.277   0.277   0.275   0.262   0.262
   15 146    70     531     255       7      43     184       0       0       0     200    0.00     0.0     0.0    0.00    0.00   0.236   0.247   0.262   0.277   0.276   0.276   0.275   0.262   0.262
   15 147    71     530     254       7      43     184       0       0       0     200    0.00     0.0     0.0    0.00    0.00   0.233   0.245   0.261   0.276   0.275   0.276   0.275   0.262   0.262
   15 148    72     529     253       7      43     184       0       0       0     200    0.00     0.0     0.0    0.00    0.00   0.228   0.242   0.259   0.275   0.274   0.275   0.275   0.262   0.262
   15 149    73     526     250       7      43     184       0       0       0     200    0.00     0.0     0.0    0.00    0.00   0.219   0.237   0.256   0.272   0.271   0.274   0.275   0.262   0.262
   15 150    74     524     248       7      43     184       0       0       0     200    0.00     0.0     0.0    0.00    0.00   0.211   0.233   0.253   0.269   0.268   0.274   0.275   0.262   0.262
   15 151    75     522     247       7      43     184       0       0       0     200    0.00     0.0     0.0    0.00    0.00   0.207   0.231   0.251   0.268   0.267   0.273   0.274   0.262   0.261
   15 152    76     521     245       7      43     184       0       0       0     200    0.00     0.0     0.0    0.00    0.00   0.200   0.227   0.249   0.266   0.265   0.272   0.274   0.261   0.261
   15 153    77     518     242       7      43     184       0       0       0     200    0.00     0.0     0.0    0.00    0.00   0.192   0.223   0.246   0.263   0.262   0.271   0.274   0.261   0.261
   15 154    78     515     239       7      43     184       0       0       0     200    0.00     0.0     0.0    0.00    0.00   0.183   0.218   0.242   0.259   0.259   0.270   0.274   0.261   0.261
   15 155    79     510     234       7      43     184       0       0       0     200    0.00     0.0     0.0    0.00    0.00   0.162   0.209   0.236   0.253   0.253   0.268   0.274   0.261   0.261
   15 156    80     505     229       7      43     184       0       0       0     200    0.00     0.0     0.0    0.00    0.00   0.143   0.200   0.230   0.246   0.246   0.266   0.274   0.261   0.261
   15 157    81     502     227       7      43     187       0       0       0     200    0.00     0.0     0.0    0.00    0.00   0.187   0.191   0.223   0.239   0.239   0.263   0.273   0.261   0.261
   15 158    82     496     220       7      43     187       0       0       0     200    0.00     0.0     0.0    0.00    0.00   0.161   0.182   0.216   0.232   0.232   0.260   0.273   0.261   0.261
   15 159    83     508     232       7      43     203       0       0       0     200    0.00     0.0     0.0    0.00    0.00   0.311   0.248   0.215   0.227   0.227   0.258   0.272   0.261   0.261
   15 160    84     507     231       7      43     203       0       0       0     200    0.00     0.0     0.0    0.00    0.00   0.267   0.245   0.227   0.226   0.226   0.257   0.272   0.261   0.261
   15 161    85     506     231       7      43     203       0       0       0     200    0.00     0.0     0.0    0.00    0.00   0.250   0.246   0.230   0.225   0.225   0.257   0.272   0.261   0.261
   15 162    86     505     229       7      43     203       0       0       0     200    0.00     0.0     0.0    0.00    0.00   0.236   0.244   0.231   0.224   0.224   0.256   0.272   0.261   0.261
   15 163    87     502     226       7      43     203       0       0       0     200    0.00     0.0     0.0    0.00    0.00   0.224   0.238   0.227   0.222   0.222   0.255   0.271   0.261   0.261
   15 164    88     502     227       7      43     211       0       0       0     200    0.00     0.0     0.0    0.00    0.00   0.286   0.243   0.227   0.215   0.215   0.251   0.270   0.261   0.261
   15 165    89     517     241       8      43     231       0       0       0     200    0.00     0.0     0.0    1.12    0.00   0.300   0.311   0.271   0.226   0.212   0.249   0.269   0.260   0.261
   15 166    90     532     256      10      43     252       0       0       0     200    0.00     0.0     0.0    2.10    0.00   0.306   0.312   0.318   0.278   0.215   0.247   0.268   0.260   0.261
   15 167    91     531     255      10      43     252       0       0       0     200    0.00     0.0     0.0    0.00    0.00   0.267   0.278   0.289   0.278   0.276   0.247   0.268   0.260   0.261
   15 168    92     528     253      10      43     252       0       0       0     200    0.00     0.0     0.0    0.00    0.00   0.243   0.258   0.272   0.275   0.274   0.268   0.267   0.260   0.260
   15 169    93     536     261      10      43     263       0       0       0     200    0.00     0.0     0.0    0.00    0.00   0.312   0.283   0.277   0.282   0.276   0.269   0.266   0.260   0.260
   15 170    94     534     258      10      44     263       0       0       0     200    0.00     0.0     0.0    0.00    0.00   0.269   0.262   0.268   0.277   0.275   0.273   0.274   0.262   0.262
   15 171    95     531     255      10      46     263       0       0       0     200    0.00     0.0     0.0    0.00    0.00   0.248   0.252   0.264   0.276   0.275   0.273   0.274   0.262   0.262
   15 172    96     530     254      10      46     263       0       0       0     200    0.00     0.0     0.0    0.00    0.00   0.237   0.247   0.262   0.275   0.275   0.273   0.274   0.262   0.262
   15 173    97     538     262      10      46     273       0       0       0     200    0.00     0.0     0.0    0.00    0.00   0.314   0.273   0.270   0.278   0.277   0.273   0.273   0.262   0.262
   15 174    98     537     261      10      46     275       0       0       0     200    0.00     0.0     0.0    0.00    0.00   0.292   0.269   0.272   0.281   0.278   0.274   0.272   0.262   0.262
   15 175    99     532     256      10      49     275       0       0       0     200    0.00     0.0     0.0    0.00    0.00   0.257   0.254   0.265   0.276   0.276   0.274   0.273   0.262   0.262
   15 176   100     528     252      10      49     275       0       0       0     200    0.00     0.0     0.0    0.00    0.00   0.234   0.244   0.261   0.273   0.272   0.272   0.273   0.262   0.262
   15 177   101     523     247      10      49     275       0       0       0     200    0.00     0.0     0.0    0.00    0.00   0.210   0.236   0.256   0.268   0.268   0.270   0.272   0.262   0.262
   15 178   102     517     242      10      49     275       0       0       0     200    0.00     0.0     0.0    0.00    0.00   0.188   0.227   0.249   0.261   0.261   0.267   0.270   0.262   0.262
   15 179   103     514     239      10      49     275       0       0       0     200    0.00     0.0     0.0    0.00    0.00   0.172   0.222   0.246   0.259   0.259   0.266   0.269   0.262   0.262
   15 180   104     510     235      10      49     275       0       0       0     200    0.00     0.0     0.0    0.00    0.00   0.155   0.216   0.242   0.255   0.255   0.264   0.268   0.262   0.262
   15 181   105     505     229      10      49     275       0       0       0     200    0.00     0.0     0.0    0.00    0.00   0.137   0.207   0.236   0.249   0.249   0.261   0.266   0.262   0.262
   15 182   106     497     221      10      49     275       0       0       0     200    0.00     0.0     0.0    0.00    0.00   0.120   0.195   0.227   0.240   0.240   0.256   0.262   0.262   0.262
   15 183   107     490     214      10      49     275       0       0       0     200    0.00     0.0     0.0    0.00    0.00   0.109   0.184   0.219   0.232   0.232   0.252   0.259   0.262   0.262
   15 184   108     483     207      10      49     275       0       0       0     200    0.00     0.0     0.0    0.00    0.00   0.102   0.173   0.210   0.224   0.224   0.246   0.255   0.262   0.262
   15 185   109     476     201      10      49     275       0       0       0     200    0.00     0.0     0.0    0.00    0.00   0.096   0.164   0.202   0.216   0.216   0.240   0.251   0.262   0.262
   15 186   110     470     194      10      49     275       0       0       0     200    0.00     0.0     0.0    0.00    0.00   0.090   0.156   0.195   0.208   0.209   0.234   0.247   0.262   0.262
   15 187   111     464     188      10      49     275       0       0       0     200    0.00     0.0     0.0    0.00    0.00   0.085   0.149   0.188   0.202   0.202   0.228   0.242   0.262   0.262
   15 188   112     463     188      10      49     279       0       0       0     200    0.00     0.0     0.0    0.00    0.00   0.156   0.145   0.183   0.197   0.197   0.223   0.239   0.262   0.262
   15 189   113     463     187      10      49     285       0       0       0     200    0.00     0.0     0.0    0.00    0.00   0.233   0.149   0.178   0.192   0.192   0.217   0.234   0.262   0.262
   15 190   114     460     185      10      49     285       0       0       0     200    0.00     0.0     0.0    0.00    0.00   0.212   0.147   0.176   0.190   0.190   0.215   0.233   0.262   0.262
   15 191   115     457     182      10      49     285       0       0       0     200    0.00     0.0     0.0    0.00    0.00   0.184   0.145   0.174   0.189   0.189   0.213   0.232   0.262   0.262
   15 192   116     452     176      10      49     285       0       0       0     200    0.00     0.0     0.0    0.00    0.00   0.151   0.141   0.171   0.185   0.185   0.209   0.228   0.262   0.262
   15 193   117     445     169      10      49     285       0       0       0     200    0.00     0.0     0.0    0.00    0.00   0.122   0.135   0.165   0.179   0.180   0.202   0.222   0.262   0.262
   15 194   118     441     165      10      49     286       0       0       0     200    0.00     0.0     0.0    0.00    0.00   0.131   0.132   0.161   0.175   0.175   0.197   0.217   0.262   0.262
   15 195   119     439     164      10      49     286       0       0       0     200    0.00     0.0     0.0    0.00    0.00   0.120   0.130   0.160   0.174   0.175   0.196   0.216   0.262   0.262
   15 196   120     436     161      10      49     286       0       0       0     200    0.00     0.0     0.0    0.00    0.00   0.109   0.128   0.158   0.172   0.172   0.193   0.213   0.262   0.262
   15 197   121     432     157      10      49     286       0       0       0     200    0.00     0.0     0.0    0.00    0.00   0.102   0.126   0.154   0.169   0.169   0.188   0.208   0.262   0.262
   15 198   122     427     151      10      49     286       0       0       0     200    0.00     0.0     0.0    0.00    0.00   0.096   0.123   0.150   0.164   0.164   0.182   0.200   0.262   0.262
   15 199   123     422     147      10      49     286       0       0       0     200    0.00     0.0     0.0    0.00    0.00   0.090   0.121   0.146   0.161   0.161   0.177   0.193   0.261   0.262
   15 200   124     420     144      10      49     286       0       0       0     200    0.00     0.0     0.0    0.00    0.00   0.085   0.120   0.145   0.159   0.159   0.174   0.188   0.261   0.262
   15 201   125     418     142      10      49     286       0       0       0     200    0.00     0.0     0.0    0.00    0.00   0.080   0.119   0.143   0.158   0.158   0.171   0.185   0.261   0.262
   15 202   126     416     140      10      49     286       0       0       0     200    0.00     0.0     0.0    0.00    0.00   0.076   0.119   0.142   0.157   0.157   0.169   0.182   0.261   0.262
   15 203   127     413     138      10      49     286       0       0       0     200    0.00     0.0     0.0    0.00    0.00   0.072   0.118   0.140   0.155   0.155   0.166   0.177   0.261   0.262
   15 204   128     412     136      10      49     287       0       0       0     200    0.00     0.0     0.0    0.00    0.00   0.087   0.117   0.138   0.152   0.152   0.161   0.177   0.261   0.262
   15 205   129     411     135      10      49     287       0       0       0     200    0.00     0.0     0.0    0.00    0.00   0.083   0.117   0.137   0.152   0.152   0.160   0.177   0.261   0.262
   15 206   130     409     134      10      49     287       0       0       0     200    0.00     0.0     0.0    0.00    0.00   0.078   0.116   0.136   0.150   0.150   0.157   0.177   0.261   0.262
   15 207   131     408     133      10      49     287       0       0       0     200    0.00     0.0     0.0    0.00    0.00   0.074   0.116   0.135   0.149   0.149   0.154   0.177   0.261   0.262
   15 208   132     410     134      10      49     290       0       0       0     200    0.00     0.0     0.0    0.00    0.00   0.128   0.116   0.134   0.148   0.148   0.152   0.177   0.261   0.262
   15 209   133     410     134      10      49     291       0       0       0     200    0.00     0.0     0.0    0.00    0.00   0.134   0.115   0.134   0.148   0.148   0.152   0.175   0.261   0.262
   15 210   134     410     134      10      49     292       0       0       0     200    0.00     0.0     0.0    0.00    0.00   0.139   0.115   0.134   0.148   0.148   0.151   0.174   0.261   0.262
   15 211   135     409     133      10      49     292       0       0       0     200    0.00     0.0     0.0    0.00    0.00   0.126   0.114   0.134   0.148   0.148   0.151   0.173   0.261   0.262
   15 212   136     408     132      10      49     292       0       0       0     200    0.00     0.0     0.0    0.00    0.00   0.114   0.114   0.133   0.148   0.148   0.151   0.172   0.261   0.262
   15 213   137     407     131      10      49     292       0       0       0     200    0.00     0.0     0.0    0.00    0.00   0.105   0.113   0.133   0.148   0.148   0.150   0.170   0.261   0.262
   15 214   138     406     130      10      49     292       0       0       0     200    0.00     0.0     0.0    0.00    0.00   0.098   0.113   0.133   0.148   0.148   0.150   0.170   0.261   0.262
   15 215   139     405     130      10      49     292       0       0       0     200    0.00     0.0     0.0    0.00    0.00   0.093   0.112   0.133   0.147   0.147   0.149   0.170   0.261   0.262
   15 216   140     405     129      10      49     292       0       0       0     200    0.00     0.0     0.0    0.00    0.00   0.087   0.112   0.133   0.147   0.147   0.149   0.170   0.261   0.262
   15 217   141     405     129      10      49     292       0       0       0     200    0.00     0.0     0.0    0.00    0.00   0.082   0.112   0.133   0.147   0.147   0.149   0.170   0.261   0.262
   15 218   142     404     129      10      49     292       0       0       0     200    0.00     0.0     0.0    0.00    0.00   0.078   0.111   0.133   0.147   0.147   0.149   0.170   0.261   0.262
   15 219   143     404     128      10      49     292       0       0       0     200    0.00     0.0     0.0    0.00    0.00   0.074   0.111   0.133   0.147   0.147   0.149   0.170   0.261   0.262
   15 220   144     405     129      10      49     293       0       0       0     200    0.00     0.0     0.0    0.00    0.00   0.089   0.110   0.132   0.147   0.147   0.149   0.170   0.261   0.262
   15 221   145     404     129      10      49     293       0       0       0     200    0.00     0.0     0.0    0.00    0.00   0.084   0.110   0.132   0.147   0.147   0.149   0.170   0.261   0.262
   15 222   146     404     128      10      49     293       0       0       0     200    0.00     0.0     0.0    0.00    0.00   0.079   0.109   0.132   0.147   0.147   0.149   0.170   0.261   0.262
   15 223   147     404     128      10      49     293       0       0       0     200    0.00     0.0     0.0    0.00    0.00   0.075   0.109   0.132   0.147   0.147   0.149   0.170   0.261   0.262
   15 224   148     403     128      10      49     293       0       0       0     200    0.00     0.0     0.0    0.00    0.00   0.071   0.109   0.132   0.147   0.147   0.149   0.170   0.261   0.262

*DSSAT Cropping System Model Ver. 4.8.5.000 -release  OCT 27, 2025 22:35:44

*RUN   3        : 3                         WHAPS048 TUDU1501    3
 MODEL          : WHAPS048 - Wheat
 EXPERIMENT     : TUDU1501 WH
 DATA PATH      :
 TREATMENT  3   : 3                         WHAPS048
  
!                                                                                                                                   Soil water content (mm3/mm3) by soil depth (cm):
!                                                                                                                                   0-5    5-15   15-30   30-45   45-60   60-80  80-100 100-150 150-200
@YEAR DOY   DAS    SWTD    SWXD    ROFC    DRNC    PREC    IR#C    IRRC   LATFC    DTWT    MWTD    TDFD    TDFC    ROFD    ROSD    SW1D    SW2D    SW3D    SW4D    SW5D    SW6D    SW7D    SW8D    SW9D
   15 076     0     530     255       0       0       0       0       0       0     200    0.00     0.0     0.0    0.00    0.00   0.236   0.247   0.262   0.276   0.276   0.274   0.274   0.262   0.262
   15 077     1     529     254       0       0       0       0       0       0     200    0.00     0.0     0.0    0.00    0.00   0.229   0.246   0.262   0.276   0.276   0.274   0.274   0.262   0.262
   15 078     2     528     253       0       0       0       0       0       0     200    0.00     0.0     0.0    0.00    0.00   0.209   0.245   0.261   0.276   0.276   0.274   0.274   0.262   0.262
   15 079     3     527     252       0       0       0       0       0       0     200    0.00     0.0     0.0    0.00    0.00   0.192   0.243   0.261   0.276   0.276   0.274   0.274   0.262   0.262
   15 080     4     528     252       0       0       2       0       0       0     200    0.00     0.0     0.0    0.00    0.00   0.216   0.242   0.261   0.276   0.276   0.274   0.274   0.262   0.262
   15 081     5     527     252       0       0       2       0       0       0     200    0.00     0.0     0.0    0.00    0.00   0.201   0.241   0.261   0.276   0.276   0.274   0.274   0.262   0.262
   15 082     6     526     251       0       0       2       0       0       0     200    0.00     0.0     0.0    0.00    0.00   0.185   0.240   0.260   0.275   0.276   0.274   0.274   0.262   0.262
   15 083     7     525     250       0       0       2       0       0       0     200    0.00     0.0     0.0    0.00    0.00   0.170   0.239   0.260   0.275   0.276   0.274   0.274   0.262   0.262
   15 084     8     524     249       0       0       2       0       0       0     200    0.00     0.0     0.0    0.00    0.00   0.156   0.237   0.260   0.275   0.276   0.274   0.274   0.262   0.262
   15 085     9     524     248       0       0       2       0       0       0     200    0.00     0.0     0.0    0.00    0.00   0.148   0.237   0.260   0.275   0.276   0.274   0.274   0.262   0.262
   15 086    10     524     249       0       0       3       0       0       0     200    0.00     0.0     0.0    0.00    0.00   0.156   0.235   0.260   0.275   0.276   0.274   0.274   0.262   0.262
   15 087    11     523     248       0       0       3       0       0       0     200    0.00     0.0     0.0    0.00    0.00   0.144   0.234   0.259   0.275   0.275   0.274   0.274   0.262   0.262
   15 088    12     522     247       0       0       3       0       0       0     200    0.00     0.0     0.0    0.00    0.00   0.133   0.233   0.259   0.275   0.275   0.274   0.274   0.262   0.262
   15 089    13     529     253       0       0      10       0       0       0     200    0.00     0.0     0.0    0.00    0.00   0.243   0.241   0.259   0.275   0.275   0.274   0.274   0.262   0.262
   15 090    14     530     255       0       0      13       0       0       0     200    0.00     0.0     0.0    0.00    0.00   0.267   0.249   0.261   0.274   0.275   0.273   0.273   0.262   0.262
   15 091    15     531     255       0       0      16       0       0       0     200    0.00     0.0     0.0    0.00    0.00   0.277   0.255   0.263   0.276   0.274   0.272   0.273   0.261   0.261
   15 092    16     534     258       0       0      20       0       0       0     200    0.00     0.0     0.0    0.00    0.00   0.298   0.263   0.268   0.278   0.276   0.272   0.272   0.261   0.261
   15 093    17     529     254       0       1      20       0       0       0     200    0.00     0.0     0.0    0.00    0.00   0.253   0.250   0.262   0.276   0.274   0.273   0.273   0.261   0.261
   15 094    18     532     257       0       1      24       0       0       0     200    0.00     0.0     0.0    0.00    0.00   0.285   0.258   0.265   0.277   0.276   0.272   0.273   0.261   0.261
   15 095    19     530     254       0       1      24       0       0       0     200    0.00     0.0     0.0    0.00    0.00   0.252   0.249   0.262   0.276   0.275   0.273   0.273   0.261   0.262
   15 096    20     528     253       0       1      24       0       0       0     200    0.00     0.0     0.0    0.00    0.00   0.238   0.247   0.261   0.275   0.275   0.273   0.273   0.261   0.261
   15 097    21     525     250       0       1      24       0       0       0     200    0.00     0.0     0.0    0.00    0.00   0.225   0.242   0.258   0.273   0.274   0.272   0.272   0.260   0.261
   15 098    22     524     248       0       1      24       0       0       0     200    0.00     0.0     0.0    0.00    0.00   0.207   0.241   0.258   0.273   0.274   0.272   0.272   0.260   0.261
   15 099    23     523     247       0       1      24       0       0       0     200    0.00     0.0     0.0    0.00    0.00   0.189   0.239   0.257   0.273   0.273   0.272   0.272   0.260   0.261
   15 100    24     522     246       0       1      24       0       0       0     200    0.00     0.0     0.0    0.00    0.00   0.173   0.238   0.257   0.273   0.273   0.272   0.272   0.260   0.261
   15 101    25     521     245       0       1      24       0       0       0     200    0.00     0.0     0.0    0.00    0.00   0.158   0.236   0.257   0.273   0.273   0.272   0.272   0.260   0.261
   15 102    26     520     245       0       1      24       0       0       0     200    0.00     0.0     0.0    0.00    0.00   0.146   0.235   0.257   0.273   0.273   0.272   0.272   0.260   0.261
   15 103    27     519     244       0       1      24       0       0       0     200    0.00     0.0     0.0    0.00    0.00   0.134   0.233   0.256   0.273   0.273   0.272   0.272   0.260   0.261
   15 104    28     518     243       0       1      24       0       0       0     200    0.00     0.0     0.0    0.00    0.00   0.123   0.231   0.256   0.272   0.273   0.272   0.272   0.260   0.261
   15 105    29     518     242       0       1      24       0       0       0     200    0.00     0.0     0.0    0.00    0.00   0.114   0.228   0.256   0.272   0.273   0.272   0.272   0.260   0.261
   15 106    30     517     241       0       1      24       0       0       0     200    0.00     0.0     0.0    0.00    0.00   0.105   0.224   0.255   0.272   0.273   0.272   0.272   0.260   0.261
   15 107    31     539     263       0       1      48       0       0       0     200    0.00     0.0     0.0    0.22    0.00   0.313   0.297   0.276   0.281   0.278   0.271   0.271   0.260   0.260
   15 108    32     533     257       0       4      48       0       0       0     200    0.00     0.0     0.0    0.00    0.00   0.261   0.267   0.266   0.277   0.277   0.273   0.273   0.261   0.261
   15 109    33     528     253       0       5      48       0       0       0     200    0.00     0.0     0.0    0.00    0.00   0.232   0.251   0.261   0.274   0.275   0.272   0.273   0.261   0.261
   15 110    34     524     248       0       5      48       0       0       0     200    0.00     0.0     0.0    0.00    0.00   0.214   0.242   0.258   0.272   0.273   0.271   0.271   0.260   0.260
   15 111    35     522     247       0       5      48       0       0       0     200    0.00     0.0     0.0    0.00    0.00   0.193   0.240   0.258   0.272   0.273   0.271   0.271   0.260   0.260
   15 112    36     521     245       0       5      48       0       0       0     200    0.00     0.0     0.0    0.00    0.00   0.171   0.236   0.257   0.272   0.273   0.271   0.271   0.260   0.260
   15 113    37     519     244       0       5      48       0       0       0     200    0.00     0.0     0.0    0.00    0.00   0.152   0.232   0.255   0.271   0.273   0.271   0.271   0.260   0.260
   15 114    38     518     243       0       5      48       0       0       0     200    0.00     0.0     0.0    0.00    0.00   0.140   0.230   0.254   0.271   0.273   0.271   0.271   0.260   0.260
   15 115    39     517     242       0       5      49       0       0       0     200    0.00     0.0     0.0    0.00    0.00   0.145   0.225   0.252   0.271   0.273   0.271   0.271   0.260   0.260
   15 116    40     517     241       0       5      50       0       0       0     200    0.00     0.0     0.0    0.00    0.00   0.152   0.221   0.250   0.271   0.272   0.271   0.271   0.260   0.260
   15 117    41     520     245       0       5      55       0       0       0     200    0.00     0.0     0.0    0.00    0.00   0.226   0.221   0.248   0.270   0.272   0.271   0.271   0.260   0.260
   15 118    42     524     248       0       5      61       0       0       0     200    0.00     0.0     0.0    0.00    0.00   0.282   0.242   0.245   0.269   0.272   0.270   0.271   0.260   0.260
   15 119    43     521     246       0       5      61       0       0       0     200    0.00     0.0     0.0    0.00    0.00   0.247   0.243   0.246   0.267   0.271   0.269   0.270   0.259   0.260
   15 120    44     520     244       0       5      62       0       0       0     200    0.00     0.0     0.0    0.00    0.00   0.239   0.245   0.244   0.265   0.270   0.268   0.269   0.258   0.259
   15 121    45     545     269       3       5      92       0       0       0     200    0.00     0.0     0.0    3.05    0.00   0.310   0.318   0.302   0.291   0.280   0.272   0.269   0.258   0.259
   15 122    46     544     269       3       5      93       0       0       0     200    0.00     0.0     0.0    0.00    0.00   0.282   0.291   0.296   0.300   0.290   0.278   0.273   0.258   0.259
   15 123    47     554     278       3       5     104       0       0       0     200    0.00     0.0     0.0    0.08    0.00   0.312   0.311   0.300   0.307   0.298   0.284   0.278   0.260   0.259
   15 124    48     541     265       3      15     104       0       0       0     200    0.00     0.0     0.0    0.00    0.00   0.263   0.275   0.278   0.290   0.286   0.278   0.276   0.262   0.262
   15 125    49     542     266       3      15     107       0       0       0     200    0.00     0.0     0.0    0.00    0.00   0.273   0.267   0.276   0.289   0.288   0.280   0.278   0.263   0.261
   15 126    50     562     286       6      15     132       0       0       0     200    0.00     0.0     0.0    2.48    0.00   0.308   0.316   0.315   0.308   0.298   0.285   0.281   0.264   0.263
   15 127    51     544     268       6      30     132       0       0       0     200    0.00     0.0     0.0    0.00    0.00   0.260   0.277   0.286   0.290   0.286   0.279   0.277   0.263   0.263
   15 128    52     535     259       6      37     132       0       0       0     200    0.00     0.0     0.0    0.00    0.00   0.233   0.257   0.270   0.281   0.280   0.275   0.276   0.262   0.262
   15 129    53     536     260       6      37     136       0       0       0     200    0.00     0.0     0.0    0.00    0.00   0.265   0.256   0.267   0.280   0.280   0.276   0.276   0.263   0.262
   15 130    54     531     256       6      39     136       0       0       0     200    0.00     0.0     0.0    0.00    0.00   0.240   0.247   0.262   0.276   0.277   0.275   0.275   0.263   0.262
   15 131    55     528     252       6      39     136       0       0       0     200    0.00     0.0     0.0    0.00    0.00   0.224   0.242   0.258   0.273   0.275   0.274   0.275   0.262   0.261
   15 132    56     524     249       6      39     136       0       0       0     200    0.00     0.0     0.0    0.00    0.00   0.208   0.236   0.254   0.270   0.273   0.274   0.274   0.261   0.261
   15 133    57     526     250       6      39     142       0       0       0     200    0.00     0.0     0.0    0.00    0.00   0.268   0.244   0.251   0.266   0.271   0.273   0.273   0.261   0.260
   15 134    58     524     248       6      39     142       0       0       0     200    0.00     0.0     0.0    0.00    0.00   0.241   0.243   0.252   0.264   0.270   0.272   0.273   0.261   0.260
   15 135    59     522     247       6      39     142       0       0       0     200    0.00     0.0     0.0    0.00    0.00   0.234   0.242   0.250   0.263   0.269   0.272   0.273   0.260   0.260
   15 136    60     521     245       6      39     142       0       0       0     200    0.00     0.0     0.0    0.00    0.00   0.214   0.240   0.249   0.262   0.269   0.272   0.273   0.260   0.260
   15 137    61     520     244       6      39     143       0       0       0     200    0.00     0.0     0.0    0.00    0.00   0.211   0.237   0.247   0.261   0.268   0.272   0.272   0.260   0.260
   15 138    62     518     243       6      39     143       0       0       0     200    0.00     0.0     0.0    0.00    0.00   0.193   0.234   0.246   0.260   0.267   0.272   0.272   0.260   0.260
   15 139    63     532     256       6      39     159       0       0       0     200    0.00     0.0     0.0    0.07    0.00   0.312   0.284   0.264   0.264   0.266   0.271   0.272   0.260   0.260
   15 140    64     549     274       8      39     179       0       0       0     200    0.00     0.0     0.0    1.69    0.00   0.317   0.319   0.309   0.293   0.279   0.274   0.272   0.260   0.260
   15 141    65     550     274       8      39     180       0       0       0     200    0.00     0.0     0.0    0.00    0.00   0.288   0.293   0.301   0.304   0.291   0.280   0.276   0.261   0.260
   15 142    66     539     264       8      47     180       0       0       0     200    0.00     0.0     0.0    0.00    0.00   0.256   0.268   0.280   0.289   0.283   0.276   0.275   0.262   0.262
   15 143    67     541     265       8      47     183       0       0       0     200    0.00     0.0     0.0    0.00    0.00   0.274   0.264   0.276   0.289   0.286   0.279   0.277   0.263   0.262
   15 144    68     541     265       8      47     184       0       0       0     200    0.00     0.0     0.0    0.00    0.00   0.263   0.260   0.272   0.287   0.286   0.280   0.279   0.265   0.261
   15 145    69     535     259       8      52     184       0       0       0     200    0.00     0.0     0.0    0.00    0.00   0.245   0.252   0.266   0.281   0.281   0.277   0.276   0.264   0.262
   15 146    70     532     257       8      53     184       0       0       0     200    0.00     0.0     0.0    0.00    0.00   0.235   0.247   0.262   0.277   0.277   0.276   0.276   0.264   0.262
   15 147    71     531     256       8      53     184       0       0       0     200    0.00     0.0     0.0    0.00    0.00   0.231   0.245   0.261   0.276   0.277   0.276   0.275   0.264   0.262
   15 148    72     529     254       8      53     184       0       0       0     200    0.00     0.0     0.0    0.00    0.00   0.224   0.242   0.259   0.275   0.276   0.275   0.275   0.264   0.261
   15 149    73     527     251       8      53     184       0       0       0     200    0.00     0.0     0.0    0.00    0.00   0.215   0.238   0.256   0.273   0.274   0.274   0.275   0.263   0.261
   15 150    74     525     249       8      53     184       0       0       0     200    0.00     0.0     0.0    0.00    0.00   0.208   0.235   0.254   0.271   0.273   0.274   0.274   0.263   0.261
   15 151    75     523     248       8      53     184       0       0       0     200    0.00     0.0     0.0    0.00    0.00   0.202   0.232   0.252   0.270   0.272   0.273   0.274   0.263   0.261
   15 152    76     522     246       8      53     184       0       0       0     200    0.00     0.0     0.0    0.00    0.00   0.184   0.230   0.250   0.269   0.271   0.273   0.274   0.263   0.261
   15 153    77     520     244       8      53     184       0       0       0     200    0.00     0.0     0.0    0.00    0.00   0.166   0.226   0.248   0.267   0.270   0.273   0.274   0.263   0.261
   15 154    78     518     242       8      53     184       0       0       0     200    0.00     0.0     0.0    0.00    0.00   0.152   0.223   0.246   0.266   0.269   0.273   0.274   0.263   0.261
   15 155    79     516     240       8      53     184       0       0       0     200    0.00     0.0     0.0    0.00    0.00   0.138   0.219   0.243   0.264   0.268   0.272   0.274   0.263   0.261
   15 156    80     514     238       8      53     184       0       0       0     200    0.00     0.0     0.0    0.00    0.00   0.126   0.215   0.240   0.262   0.267   0.272   0.274   0.263   0.261
   15 157    81     515     239       8      53     187       0       0       0     200    0.00     0.0     0.0    0.00    0.00   0.174   0.211   0.238   0.260   0.265   0.271   0.274   0.263   0.261
   15 158    82     512     237       8      53     187       0       0       0     200    0.00     0.0     0.0    0.00    0.00   0.156   0.206   0.234   0.258   0.264   0.271   0.273   0.263   0.261
   15 159    83     527     251       8      53     203       0       0       0     200    0.00     0.0     0.0    0.00    0.00   0.317   0.262   0.244   0.256   0.263   0.270   0.273   0.262   0.261
   15 160    84     526     250       8      53     203       0       0       0     200    0.00     0.0     0.0    0.00    0.00   0.273   0.253   0.261   0.256   0.262   0.270   0.273   0.262   0.260
   15 161    85     525     250       8      53     203       0       0       0     200    0.00     0.0     0.0    0.00    0.00   0.252   0.249   0.261   0.263   0.262   0.270   0.273   0.262   0.260
   15 162    86     524     248       8      53     203       0       0       0     200    0.00     0.0     0.0    0.00    0.00   0.238   0.247   0.260   0.264   0.261   0.269   0.272   0.262   0.260
   15 163    87     520     245       8      53     203       0       0       0     200    0.00     0.0     0.0    0.00    0.00   0.226   0.241   0.257   0.262   0.259   0.268   0.271   0.261   0.260
[...]
   15 126    50     562     286       6      15     132       0       0       0     200    0.00     0.0     0.0    2.48    0.00   0.308   0.316   0.315   0.308   0.298   0.285   0.281   0.264   0.263
   15 127    51     544     268       6      30     132       0       0       0     200    0.00     0.0     0.0    0.00    0.00   0.260   0.277   0.286   0.290   0.286   0.279   0.277   0.263   0.263
   15 128    52     535     259       6      37     132       0       0       0     200    0.00     0.0     0.0    0.00    0.00   0.233   0.257   0.270   0.281   0.280   0.275   0.276   0.262   0.262
   15 129    53     536     260       6      37     136       0       0       0     200    0.00     0.0     0.0    0.00    0.00   0.265   0.256   0.267   0.280   0.280   0.276   0.276   0.263   0.262
   15 130    54     531     256       6      39     136       0       0       0     200    0.00     0.0     0.0    0.00    0.00   0.240   0.247   0.262   0.276   0.277   0.275   0.275   0.263   0.262
   15 131    55     528     252       6      39     136       0       0       0     200    0.00     0.0     0.0    0.00    0.00   0.224   0.242   0.258   0.273   0.275   0.274   0.275   0.262   0.261
   15 132    56     524     249       6      39     136       0       0       0     200    0.00     0.0     0.0    0.00    0.00   0.208   0.236   0.254   0.270   0.273   0.274   0.274   0.261   0.261
   15 133    57     526     250       6      39     142       0       0       0     200    0.00     0.0     0.0    0.00    0.00   0.268   0.244   0.251   0.266   0.271   0.273   0.273   0.261   0.260
   15 134    58     524     248       6      39     142       0       0       0     200    0.00     0.0     0.0    0.00    0.00   0.241   0.243   0.252   0.264   0.270   0.272   0.273   0.261   0.260
   15 135    59     522     247       6      39     142       0       0       0     200    0.00     0.0     0.0    0.00    0.00   0.234   0.242   0.250   0.263   0.269   0.272   0.273   0.260   0.260
   15 136    60     521     245       6      39     142       0       0       0     200    0.00     0.0     0.0    0.00    0.00   0.214   0.240   0.249   0.262   0.269   0.272   0.273   0.260   0.260
   15 137    61     520     244       6      39     143       0       0       0     200    0.00     0.0     0.0    0.00    0.00   0.211   0.237   0.247   0.261   0.268   0.272   0.272   0.260   0.260
   15 138    62     518     243       6      39     143       0       0       0     200    0.00     0.0     0.0    0.00    0.00   0.193   0.234   0.246   0.260   0.267   0.272   0.272   0.260   0.260
   15 139    63     532     256       6      39     159       0       0       0     200    0.00     0.0     0.0    0.07    0.00   0.312   0.284   0.264   0.264   0.266   0.271   0.272   0.260   0.260
   15 140    64     549     274       8      39     179       0       0       0     200    0.00     0.0     0.0    1.69    0.00   0.317   0.319   0.309   0.293   0.279   0.274   0.272   0.260   0.260
   15 141    65     550     274       8      39     180       0       0       0     200    0.00     0.0     0.0    0.00    0.00   0.288   0.293   0.301   0.304   0.291   0.280   0.276   0.261   0.260
   15 142    66     539     264       8      47     180       0       0       0     200    0.00     0.0     0.0    0.00    0.00   0.256   0.268   0.280   0.289   0.283   0.276   0.275   0.262   0.262
   15 143    67     541     265       8      47     183       0       0       0     200    0.00     0.0     0.0    0.00    0.00   0.274   0.264   0.276   0.289   0.286   0.279   0.277   0.263   0.262
   15 144    68     541     265       8      47     184       0       0       0     200    0.00     0.0     0.0    0.00    0.00   0.263   0.260   0.272   0.287   0.286   0.280   0.279   0.265   0.261
   15 145    69     535     259       8      52     184       0       0       0     200    0.00     0.0     0.0    0.00    0.00   0.245   0.252   0.266   0.281   0.281   0.277   0.276   0.264   0.262
   15 146    70     532     257       8      53     184       0       0       0     200    0.00     0.0     0.0    0.00    0.00   0.235   0.247   0.262   0.277   0.277   0.276   0.276   0.264   0.262
   15 147    71     531     256       8      53     184       0       0       0     200    0.00     0.0     0.0    0.00    0.00   0.231   0.245   0.261   0.276   0.277   0.276   0.275   0.264   0.262
   15 148    72     529     254       8      53     184       0       0       0     200    0.00     0.0     0.0    0.00    0.00   0.224   0.242   0.259   0.275   0.276   0.275   0.275   0.264   0.261
   15 149    73     527     251       8      53     184       0       0       0     200    0.00     0.0     0.0    0.00    0.00   0.215   0.238   0.256   0.273   0.274   0.274   0.275   0.263   0.261
   15 150    74     525     249       8      53     184       0       0       0     200    0.00     0.0     0.0    0.00    0.00   0.208   0.235   0.254   0.271   0.273   0.274   0.274   0.263   0.261
   15 151    75     523     248       8      53     184       0       0       0     200    0.00     0.0     0.0    0.00    0.00   0.202   0.232   0.252   0.270   0.272   0.273   0.274   0.263   0.261
   15 152    76     522     246       8      53     184       0       0       0     200    0.00     0.0     0.0    0.00    0.00   0.184   0.230   0.250   0.269   0.271   0.273   0.274   0.263   0.261
   15 153    77     520     244       8      53     184       0       0       0     200    0.00     0.0     0.0    0.00    0.00   0.166   0.226   0.248   0.267   0.270   0.273   0.274   0.263   0.261
   15 154    78     518     242       8      53     184       0       0       0     200    0.00     0.0     0.0    0.00    0.00   0.152   0.223   0.246   0.266   0.269   0.273   0.274   0.263   0.261
   15 155    79     516     240       8      53     184       0       0       0     200    0.00     0.0     0.0    0.00    0.00   0.138   0.219   0.243   0.264   0.268   0.272   0.274   0.263   0.261
   15 156    80     514     238       8      53     184       0       0       0     200    0.00     0.0     0.0    0.00    0.00   0.126   0.215   0.240   0.262   0.267   0.272   0.274   0.263   0.261
   15 157    81     515     239       8      53     187       0       0       0     200    0.00     0.0     0.0    0.00    0.00   0.174   0.211   0.238   0.260   0.265   0.271   0.274   0.263   0.261
   15 158    82     512     237       8      53     187       0       0       0     200    0.00     0.0     0.0    0.00    0.00   0.156   0.206   0.234   0.258   0.264   0.271   0.273   0.263   0.261
   15 159    83     527     251       8      53     203       0       0       0     200    0.00     0.0     0.0    0.00    0.00   0.317   0.262   0.244   0.256   0.263   0.270   0.273   0.262   0.261
   15 160    84     526     250       8      53     203       0       0       0     200    0.00     0.0     0.0    0.00    0.00   0.273   0.253   0.261   0.256   0.262   0.270   0.273   0.262   0.260
   15 161    85     525     250       8      53     203       0       0       0     200    0.00     0.0     0.0    0.00    0.00   0.252   0.249   0.261   0.263   0.262   0.270   0.273   0.262   0.260
   15 162    86     524     248       8      53     203       0       0       0     200    0.00     0.0     0.0    0.00    0.00   0.238   0.247   0.260   0.264   0.261   0.269   0.272   0.262   0.260
   15 163    87     520     245       8      53     203       0       0       0     200    0.00     0.0     0.0    0.00    0.00   0.226   0.241   0.257   0.262   0.259   0.268   0.271   0.261   0.260
   15 164    88     524     248       8      53     211       0       0       0     200    0.00     0.0     0.0    0.00    0.00   0.300   0.253   0.258   0.259   0.256   0.266   0.271   0.261   0.259
   15 165    89     539     263       9      53     231       0       0       0     200    0.00     0.0     0.0    1.31    0.00   0.306   0.314   0.292   0.282   0.262   0.265   0.270   0.260   0.259
   15 166    90     555     279      11      53     252       0       0       0     200    0.00     0.0     0.0    2.19    0.00   0.312   0.316   0.327   0.315   0.288   0.275   0.269   0.260   0.259
   15 167    91     543     267      11      64     252       0       0       0     200    0.00     0.0     0.0    0.00    0.00   0.268   0.279   0.293   0.294   0.281   0.274   0.274   0.262   0.262
   15 168    92     534     258      11      70     252       0       0       0     200    0.00     0.0     0.0    0.00    0.00   0.242   0.259   0.274   0.283   0.277   0.273   0.273   0.262   0.262
   15 169    93     543     268      11      70     263       0       0       0     200    0.00     0.0     0.0    0.00    0.00   0.314   0.285   0.279   0.288   0.282   0.276   0.275   0.261   0.262
   15 170    94     536     260      11      76     263       0       0       0     200    0.00     0.0     0.0    0.00    0.00   0.268   0.263   0.269   0.281   0.278   0.275   0.275   0.262   0.262
   15 171    95     532     256      11      78     263       0       0       0     200    0.00     0.0     0.0    0.00    0.00   0.246   0.253   0.264   0.277   0.277   0.274   0.274   0.262   0.262
   15 172    96     530     254      11      78     263       0       0       0     200    0.00     0.0     0.0    0.00    0.00   0.235   0.247   0.262   0.276   0.276   0.274   0.274   0.262   0.262
   15 173    97     538     262      11      78     273       0       0       0     200    0.00     0.0     0.0    0.00    0.00   0.313   0.272   0.269   0.279   0.277   0.275   0.273   0.261   0.262
   15 174    98     537     261      11      78     275       0       0       0     200    0.00     0.0     0.0    0.00    0.00   0.290   0.268   0.271   0.281   0.279   0.275   0.274   0.261   0.261
   15 175    99     532     256      11      81     275       0       0       0     200    0.00     0.0     0.0    0.00    0.00   0.253   0.253   0.264   0.277   0.277   0.274   0.273   0.262   0.262
   15 176   100     528     252      11      81     275       0       0       0     200    0.00     0.0     0.0    0.00    0.00   0.231   0.244   0.259   0.273   0.275   0.273   0.273   0.262   0.262
   15 177   101     524     248      11      81     275       0       0       0     200    0.00     0.0     0.0    0.00    0.00   0.205   0.238   0.255   0.270   0.272   0.272   0.272   0.262   0.262
   15 178   102     520     244      11      81     275       0       0       0     200    0.00     0.0     0.0    0.00    0.00   0.178   0.231   0.249   0.267   0.269   0.270   0.271   0.262   0.262
   15 179   103     517     242      11      81     275       0       0       0     200    0.00     0.0     0.0    0.00    0.00   0.161   0.227   0.247   0.265   0.268   0.270   0.271   0.262   0.262
   15 180   104     515     239      11      81     275       0       0       0     200    0.00     0.0     0.0    0.00    0.00   0.145   0.222   0.244   0.262   0.266   0.269   0.270   0.261   0.262
   15 181   105     511     235      11      81     275       0       0       0     200    0.00     0.0     0.0    0.00    0.00   0.130   0.214   0.238   0.259   0.263   0.267   0.269   0.261   0.262
   15 182   106     506     230      11      81     275       0       0       0     200    0.00     0.0     0.0    0.00    0.00   0.117   0.204   0.231   0.253   0.259   0.265   0.268   0.261   0.262
   15 183   107     501     225      11      81     275       0       0       0     200    0.00     0.0     0.0    0.00    0.00   0.108   0.195   0.224   0.247   0.254   0.263   0.266   0.261   0.262
   15 184   108     496     221      11      81     275       0       0       0     200    0.00     0.0     0.0    0.00    0.00   0.101   0.186   0.218   0.241   0.250   0.261   0.264   0.261   0.262
   15 185   109     492     216      11      81     275       0       0       0     200    0.00     0.0     0.0    0.00    0.00   0.095   0.178   0.212   0.235   0.245   0.259   0.263   0.261   0.262
   15 186   110     488     212      11      81     275       0       0       0     200    0.00     0.0     0.0    0.00    0.00   0.089   0.171   0.206   0.230   0.240   0.256   0.261   0.261   0.262
   15 187   111     484     208      11      81     275       0       0       0     200    0.00     0.0     0.0    0.00    0.00   0.084   0.165   0.201   0.224   0.236   0.254   0.259   0.261   0.262
   15 188   112     485     209      11      81     279       0       0       0     200    0.00     0.0     0.0    0.00    0.00   0.156   0.161   0.198   0.220   0.233   0.253   0.258   0.261   0.262
   15 189   113     487     211      11      81     285       0       0       0     200    0.00     0.0     0.0    0.00    0.00   0.233   0.165   0.193   0.216   0.228   0.251   0.256   0.261   0.262
   15 190   114     485     209      11      81     285       0       0       0     200    0.00     0.0     0.0    0.00    0.00   0.211   0.163   0.192   0.214   0.227   0.250   0.256   0.261   0.262
   15 191   115     482     207      11      81     285       0       0       0     200    0.00     0.0     0.0    0.00    0.00   0.190   0.161   0.191   0.213   0.226   0.249   0.255   0.261   0.262
   15 192   116     479     203      11      81     285       0       0       0     200    0.00     0.0     0.0    0.00    0.00   0.166   0.157   0.188   0.210   0.223   0.248   0.254   0.261   0.262
   15 193   117     474     199      11      81     285       0       0       0     200    0.00     0.0     0.0    0.00    0.00   0.142   0.152   0.184   0.205   0.218   0.245   0.252   0.261   0.262
   15 194   118     472     197      11      81     286       0       0       0     200    0.00     0.0     0.0    0.00    0.00   0.146   0.149   0.181   0.202   0.215   0.244   0.251   0.261   0.262
   15 195   119     471     195      11      81     286       0       0       0     200    0.00     0.0     0.0    0.00    0.00   0.134   0.148   0.180   0.201   0.214   0.243   0.251   0.261   0.262
   15 196   120     470     194      11      81     286       0       0       0     200    0.00     0.0     0.0    0.00    0.00   0.123   0.146   0.179   0.200   0.212   0.242   0.250   0.261   0.262
   15 197   121     467     192      11      81     286       0       0       0     200    0.00     0.0     0.0    0.00    0.00   0.114   0.144   0.177   0.198   0.210   0.241   0.249   0.261   0.262
   15 198   122     465     189      11      81     286       0       0       0     200    0.00     0.0     0.0    0.00    0.00   0.105   0.141   0.175   0.195   0.206   0.239   0.248   0.261   0.262
   15 199   123     462     186      11      81     286       0       0       0     200    0.00     0.0     0.0    0.00    0.00   0.099   0.138   0.172   0.192   0.202   0.237   0.246   0.261   0.262
   15 200   124     460     184      11      81     286       0       0       0     200    0.00     0.0     0.0    0.00    0.00   0.093   0.136   0.170   0.190   0.200   0.236   0.245   0.261   0.262
   15 201   125     458     182      11      81     286       0       0       0     200    0.00     0.0     0.0    0.00    0.00   0.087   0.134   0.168   0.188   0.198   0.234   0.244   0.261   0.262
   15 202   126     456     181      11      81     286       0       0       0     200    0.00     0.0     0.0    0.00    0.00   0.082   0.133   0.167   0.186   0.196   0.233   0.243   0.261   0.262
   15 203   127     454     178      11      81     286       0       0       0     200    0.00     0.0     0.0    0.00    0.00   0.078   0.131   0.164   0.184   0.192   0.231   0.241   0.261   0.262
   15 204   128     452     177      11      81     287       0       0       0     200    0.00     0.0     0.0    0.00    0.00   0.093   0.129   0.162   0.181   0.189   0.229   0.239   0.261   0.262
   15 205   129     452     176      11      81     287       0       0       0     200    0.00     0.0     0.0    0.00    0.00   0.088   0.128   0.161   0.181   0.189   0.228   0.239   0.261   0.262
   15 206   130     450     174      11      81     287       0       0       0     200    0.00     0.0     0.0    0.00    0.00   0.083   0.127   0.160   0.179   0.187   0.227   0.238   0.261   0.262
   15 207   131     448     173      11      81     287       0       0       0     200    0.00     0.0     0.0    0.00    0.00   0.078   0.126   0.159   0.178   0.185   0.225   0.237   0.261   0.262
   15 208   132     450     174      11      81     290       0       0       0     200    0.00     0.0     0.0    0.00    0.00   0.131   0.125   0.158   0.176   0.183   0.224   0.235   0.261   0.262
   15 209   133     450     174      11      81     291       0       0       0     200    0.00     0.0     0.0    0.00    0.00   0.140   0.124   0.157   0.176   0.183   0.223   0.235   0.261   0.262
   15 210   134     449     174      11      81     292       0       0       0     200    0.00     0.0     0.0    0.00    0.00   0.148   0.124   0.156   0.175   0.182   0.223   0.234   0.261   0.262
   15 211   135     448     173      11      81     292       0       0       0     200    0.00     0.0     0.0    0.00    0.00   0.136   0.123   0.156   0.175   0.181   0.222   0.234   0.261   0.261
   15 212   136     447     172      11      81     292       0       0       0     200    0.00     0.0     0.0    0.00    0.00   0.125   0.122   0.155   0.174   0.181   0.222   0.233   0.261   0.261
   15 213   137     446     170      11      81     292       0       0       0     200    0.00     0.0     0.0    0.00    0.00   0.115   0.122   0.154   0.173   0.180   0.221   0.233   0.261   0.261
   15 214   138     445     170      11      81     292       0       0       0     200    0.00     0.0     0.0    0.00    0.00   0.108   0.121   0.154   0.173   0.179   0.220   0.233   0.261   0.261
   15 215   139     444     169      11      81     292       0       0       0     200    0.00     0.0     0.0    0.00    0.00   0.101   0.120   0.154   0.172   0.179   0.220   0.232   0.261   0.261
   15 216   140     443     168      11      81     292       0       0       0     200    0.00     0.0     0.0    0.00    0.00   0.095   0.120   0.153   0.171   0.178   0.219   0.231   0.261   0.261
   15 217   141     442     167      11      81     292       0       0       0     200    0.00     0.0     0.0    0.00    0.00   0.089   0.119   0.152   0.171   0.177   0.218   0.230   0.261   0.261
   15 218   142     441     166      11      81     292       0       0       0     200    0.00     0.0     0.0    0.00    0.00   0.084   0.119   0.151   0.170   0.176   0.217   0.230   0.261   0.261
   15 219   143     441     165      11      81     292       0       0       0     200    0.00     0.0     0.0    0.00    0.00   0.079   0.118   0.151   0.169   0.175   0.217   0.229   0.261   0.261
   15 220   144     441     165      11      81     293       0       0       0     200    0.00     0.0     0.0    0.00    0.00   0.094   0.118   0.151   0.169   0.175   0.216   0.229   0.261   0.261
   15 221   145     441     165      11      81     293       0       0       0     200    0.00     0.0     0.0    0.00    0.00   0.089   0.117   0.151   0.169   0.175   0.216   0.229   0.261   0.261
   15 222   146     440     165      11      81     293       0       0       0     200    0.00     0.0     0.0    0.00    0.00   0.084   0.117   0.150   0.169   0.175   0.216   0.229   0.261   0.261
   15 223   147     440     164      11      81     293       0       0       0     200    0.00     0.0     0.0    0.00    0.00   0.079   0.116   0.150   0.169   0.175   0.216   0.229   0.261   0.261
   15 224   148     440     164      11      81     293       0       0       0     200    0.00     0.0     0.0    0.00    0.00   0.075   0.116   0.150   0.169   0.175   0.216   0.229   0.261   0.261
