*WATER BALANCE OUTPUT FILE

*DSSAT Cropping System Model Ver. 4.8.5.000 -release  OCT 27, 2025 22:35:44

*RUN   1        : 1                         WHAPS048 TUDU1501    1
 MODEL          : WHAPS048 - Wheat
 EXPERIMENT     : TUDU1501 WH
 DATA PATH      :
 TREATMENT  1   : 1                         WHAPS048
  

!     WATER BALANCE PARAMETERS
!     ========================                 --mm--

!     Soil H20 (start) on Year/day   15/077    530.20
!     Soil H20 (final) on Year/day   15/224    403.60
!     Effective Irrigation                       0.00
!     Precipitation                            293.00
!     Water added with new mulch                 0.00
!     Net lateral flow                           0.00
!     Drainage                                  50.11
!     Tiledrain flow                             0.00
!     Runoff                                    10.45
!     Mulch evaporation                          0.00
!     Soil Evaporation                         118.02
!     Transpiration                            241.04
!     Total evapotranspiration                 359.06
!     Total potential evapotranspiration       560.91

!     Initial mulch water content                0.00
!     Final mulch water content                  0.00

!     Final Balance                            -0.020


*DSSAT Cropping System Model Ver. 4.8.5.000 -release  OCT 27, 2025 22:35:44

*RUN   2        : 2                         WHAPS048 TUDU1501    2
 MODEL          : WHAPS048 - Wheat
 EXPERIMENT     : TUDU1501 WH
 DATA PATH      :
 TREATMENT  2   : 2                         WHAPS048
  

!     WATER BALANCE PARAMETERS
!     ========================                 --mm--

!     Soil H20 (start) on Year/day   15/077    530.20
!     Soil H20 (final) on Year/day   15/224    403.48
!     Effective Irrigation                       0.00
!     Precipitation                            293.00
!     Water added with new mulch                 0.00
!     Net lateral flow                           0.00
!     Drainage                                  49.22
!     Tiledrain flow                             0.00
!     Runoff                                    10.44
!     Mulch evaporation                          0.00
!     Soil Evaporation                         116.78
!     Transpiration                            243.30
!     Total evapotranspiration                 360.08
!     Total potential evapotranspiration       560.51

!     Initial mulch water content                0.00
!     Final mulch water content                  0.00

!     Final Balance                            -0.023


*DSSAT Cropping System Model Ver. 4.8.5.000 -release  OCT 27, 2025 22:35:44

*RUN   3        : 3                         WHAPS048 TUDU1501    3
 MODEL          : WHAPS048 - Wheat
 EXPERIMENT     : TUDU1501 WH
 DATA PATH      :
 TREATMENT  3   : 3                         WHAPS048
  

!     WATER BALANCE PARAMETERS
!     ========================                 --mm--

!     Soil H20 (start) on Year/day   15/077    530.20
!     Soil H20 (final) on Year/day   15/224    429.54
!     Effective Irrigation                       0.00
!     Precipitation                            293.00
!     Water added with new mulch                 0.00
!     Net lateral flow                           0.00
!     Drainage                                  81.36
!     Tiledrain flow                             0.00
!     Runoff                                    11.10
!     Mulch evaporation                          0.00
!     Soil Evaporation                         152.22
!     Transpiration                            149.00
!     Total evapotranspiration                 301.22
!     Total potential evapotranspiration       575.12

!     Initial mulch water content                0.00
!     Final mulch water content                  0.00

!     Final Balance                            -0.022


*DSSAT Cropping System Model Ver. 4.8.5.000 -release  OCT 27, 2025 22:35:44

*RUN   4        : 4                         WHAPS048 TUDU1501    4
 MODEL          : WHAPS048 - Wheat
 EXPERIMENT     : TUDU1501 WH
 DATA PATH      :
 TREATMENT  4   : 4                         WHAPS048
  

!     WATER BALANCE PARAMETERS
!     ========================                 --mm--

!     Soil H20 (start) on Year/day   15/077    530.20
!     Soil H20 (final) on Year/day   15/224    403.58
!     Effective Irrigation                       0.00
!     Precipitation                            293.00
!     Water added with new mulch                 0.00
!     Net lateral flow                           0.00
!     Drainage                                  49.52
!     Tiledrain flow                             0.00
!     Runoff                                    10.45
!     Mulch evaporation                          0.00
!     Soil Evaporation                         117.08
!     Transpiration                            242.60
!     Total evapotranspiration                 359.68
!     Total potential evapotranspiration       560.61

!     Initial mulch water content                0.00
!     Final mulch water content                  0.00

!     Final Balance                            -0.021


*DSSAT Cropping System Model Ver. 4.8.5.000 -release  OCT 27, 2025 22:35:44

*RUN   5        : 5                         WHAPS048 TUDU1501    5
 MODEL          : WHAPS048 - Wheat
 EXPERIMENT     : TUDU1501 WH
 DATA PATH      :
 TREATMENT  5   : 5                         WHAPS048
  

!     WATER BALANCE PARAMETERS
!     ========================                 --mm--

!     Soil H20 (start) on Year/day   15/077    530.20
!     Soil H20 (final) on Year/day   15/224    402.13
!     Effective Irrigation                       0.00
!     Precipitation                            293.00
!     Water added with new mulch                 0.00
!     Net lateral flow                           0.00
!     Drainage                                  42.96
!     Tiledrain flow                             0.00
!     Runoff                                    10.37
!     Mulch evaporation                          0.00
!     Soil Evaporation                         109.50
!     Transpiration                            258.25
!     Total evapotranspiration                 367.76
!     Total potential evapotranspiration       558.35

!     Initial mulch water content                0.00
!     Final mulch water content                  0.00

!     Final Balance                            -0.019


*DSSAT Cropping System Model Ver. 4.8.5.000 -release  OCT 27, 2025 22:35:45

*RUN   6        : 6                         WHAPS048 TUDU1501    6
 MODEL          : WHAPS048 - Wheat
 EXPERIMENT     : TUDU1501 WH
 DATA PATH      :
 TREATMENT  6   : 6                         WHAPS048
  

!     WATER BALANCE PARAMETERS
!     ========================                 --mm--

!     Soil H20 (start) on Year/day   15/077    530.20
!     Soil H20 (final) on Year/day   15/224    403.63
!     Effective Irrigation                       0.00
!     Precipitation                            293.00
!     Water added with new mulch                 0.00
!     Net lateral flow                           0.00
!     Drainage                                  50.13
!     Tiledrain flow                             0.00
!     Runoff                                    10.46
!     Mulch evaporation                          0.00
!     Soil Evaporation                         118.14
!     Transpiration                            240.86
!     Total evapotranspiration                 359.00
!     Total potential evapotranspiration       560.95

!     Initial mulch water content                0.00
!     Final mulch water content                  0.00

!     Final Balance                            -0.015


*DSSAT Cropping System Model Ver. 4.8.5.000 -release  OCT 27, 2025 22:35:45

*RUN   7        : 7                         WHAPS048 TUDU1501    7
 MODEL          : WHAPS048 - Wheat
 EXPERIMENT     : TUDU1501 WH
 DATA PATH      :
 TREATMENT  7   : 7                         WHAPS048
  

!     WATER BALANCE PARAMETERS
!     ========================                 --mm--

!     Soil H20 (start) on Year/day   15/077    530.20
!     Soil H20 (final) on Year/day   15/224    402.19
!     Effective Irrigation                       0.00
!     Precipitation                            293.00
!     Water added with new mulch                 0.00
!     Net lateral flow                           0.00
!     Drainage                                  43.67
!     Tiledrain flow                             0.00
!     Runoff                                    10.40
!     Mulch evaporation                          0.00
!     Soil Evaporation                         109.67
!     Transpiration                            257.29
!     Total evapotranspiration                 366.95
!     Total potential evapotranspiration       558.40

!     Initial mulch water content                0.00
!     Final mulch water content                  0.00

!     Final Balance                            -0.019


*DSSAT Cropping System Model Ver. 4.8.5.000 -release  OCT 27, 2025 22:35:45

*RUN   8        : 8                         WHAPS048 TUDU1501    8
 MODEL          : WHAPS048 - Wheat
 EXPERIMENT     : TUDU1501 WH
 DATA PATH      :
 TREATMENT  8   : 8                         WHAPS048
  

!     WATER BALANCE PARAMETERS
!     ========================                 --mm--

!     Soil H20 (start) on Year/day   15/077    530.20
!     Soil H20 (final) on Year/day   15/224    400.92
!     Effective Irrigation                       0.00
!     Precipitation                            293.00
!     Water added with new mulch                 0.00
!     Net lateral flow                           0.00
!     Drainage                                  40.75
!     Tiledrain flow                             0.00
!     Runoff                                    10.34
!     Mulch evaporation                          0.00
!     Soil Evaporation                         106.07
!     Transpiration                            265.13
!     Total evapotranspiration                 371.20
!     Total potential evapotranspiration       557.44

!     Initial mulch water content                0.00
!     Final mulch water content                  0.00

!     Final Balance                            -0.014


*DSSAT Cropping System Model Ver. 4.8.5.000 -release  OCT 27, 2025 22:35:45

*RUN   9        : 9                         WHAPS048 TUDU1501    9
 MODEL          : WHAPS048 - Wheat
 EXPERIMENT     : TUDU1501 WH
 DATA PATH      :
 TREATMENT  9   : 9                         WHAPS048
  

!     WATER BALANCE PARAMETERS
!     ========================                 --mm--

!     Soil H20 (start) on Year/day   15/077    530.20
!     Soil H20 (final) on Year/day   15/224    400.29
!     Effective Irrigation                       0.00
!     Precipitation                            293.00
!     Water added with new mulch                 0.00
!     Net lateral flow                           0.00
!     Drainage                                  40.42
!     Tiledrain flow                             0.00
!     Runoff                                    10.32
!     Mulch evaporation                          0.00
!     Soil Evaporation                         104.30
!     Transpiration                            267.89
!     Total evapotranspiration                 372.18
!     Total potential evapotranspiration       557.14

!     Initial mulch water content                0.00
!     Final mulch water content                  0.00

!     Final Balance                            -0.017


*DSSAT Cropping System Model Ver. 4.8.5.000 -release  OCT 27, 2025 22:35:45

*RUN  10        : 10                        WHAPS048 TUDU1501   10
 MODEL          : WHAPS048 - Wheat
 EXPERIMENT     : TUDU1501 WH
 DATA PATH      :
 TREATMENT 10   : 10                        WHAPS048
  

!     WATER BALANCE PARAMETERS
!     ========================                 --mm--

!     Soil H20 (start) on Year/day   15/077    530.20
!     Soil H20 (final) on Year/day   15/224    429.47
!     Effective Irrigation                       0.00
!     Precipitation                            293.00
!     Water added with new mulch                 0.00
!     Net lateral flow                           0.00
!     Drainage                                  81.36
!     Tiledrain flow                             0.00
!     Runoff                                    11.10
!     Mulch evaporation                          0.00
!     Soil Evaporation                         152.21
!     Transpiration                            149.08
!     Total evapotranspiration                 301.30
!     Total potential evapotranspiration       575.12

!     Initial mulch water content                0.00
!     Final mulch water content                  0.00

!     Final Balance                            -0.022


*DSSAT Cropping System Model Ver. 4.8.5.000 -release  OCT 27, 2025 22:35:45

*RUN  11        : 11                        WHAPS048 TUDU1501   11
 MODEL          : WHAPS048 - Wheat
 EXPERIMENT     : TUDU1501 WH
 DATA PATH      :
 TREATMENT 11   : 11                        WHAPS048
  

!     WATER BALANCE PARAMETERS
!     ========================                 --mm--

!     Soil H20 (start) on Year/day   15/077    530.20
!     Soil H20 (final) on Year/day   15/224    400.35
!     Effective Irrigation                       0.00
!     Precipitation                            293.00
!     Water added with new mulch                 0.00
!     Net lateral flow                           0.00
!     Drainage                                  40.42
!     Tiledrain flow                             0.00
!     Runoff                                    10.33
!     Mulch evaporation                          0.00
!     Soil Evaporation                         104.43
!     Transpiration                            267.69
!     Total evapotranspiration                 372.12
!     Total potential evapotranspiration       557.16

!     Initial mulch water content                0.00
!     Final mulch water content                  0.00

!     Final Balance                            -0.017


*DSSAT Cropping System Model Ver. 4.8.5.000 -release  OCT 27, 2025 22:35:45

*RUN  12        : 12                        WHAPS048 TUDU1501   12
 MODEL          : WHAPS048 - Wheat
 EXPERIMENT     : TUDU1501 WH
 DATA PATH      :
 TREATMENT 12   : 12                        WHAPS048
  

!     WATER BALANCE PARAMETERS
!     ========================                 --mm--

!     Soil H20 (start) on Year/day   15/077    530.20
!     Soil H20 (final) on Year/day   15/224    400.32
!     Effective Irrigation                       0.00
!     Precipitation                            293.00
!     Water added with new mulch                 0.00
!     Net lateral flow                           0.00
!     Drainage                                  40.44
!     Tiledrain flow                             0.00
!     Runoff                                    10.32
!     Mulch evaporation                          0.00
!     Soil Evaporation                         104.44
!     Transpiration                            267.70
!     Total evapotranspiration                 372.14
!     Total potential evapotranspiration       557.16

!     Initial mulch water content                0.00
!     Final mulch water content                  0.00

!     Final Balance                            -0.019


*DSSAT Cropping System Model Ver. 4.8.5.000 -release  OCT 27, 2025 22:35:45

*RUN  13        : 13                        WHAPS048 TUDU1501   13
 MODEL          : WHAPS048 - Wheat
 EXPERIMENT     : TUDU1501 WH
 DATA PATH      :
 TREATMENT 13   : 13                        WHAPS048
  

!     WATER BALANCE PARAMETERS
!     ========================                 --mm--

!     Soil H20 (start) on Year/day   15/077    530.20
!     Soil H20 (final) on Year/day   15/224    401.36
!     Effective Irrigation                       0.00
!     Precipitation                            293.00
!     Water added with new mulch                 0.00
!     Net lateral flow                           0.00
!     Drainage                                  40.77
!     Tiledrain flow                             0.00
!     Runoff                                    10.35
!     Mulch evaporation                          0.00
!     Soil Evaporation                         106.41
!     Transpiration                            264.32
!     Total evapotranspiration                 370.73
!     Total potential evapotranspiration       557.53

!     Initial mulch water content                0.00
!     Final mulch water content                  0.00

!     Final Balance                            -0.015


*DSSAT Cropping System Model Ver. 4.8.5.000 -release  OCT 27, 2025 22:35:45

*RUN  14        : 14                        WHAPS048 TUDU1501   14
 MODEL          : WHAPS048 - Wheat
 EXPERIMENT     : TUDU1501 WH
 DATA PATH      :
 TREATMENT 14   : 14                        WHAPS048
  

!     WATER BALANCE PARAMETERS
!     ========================                 --mm--

!     Soil H20 (start) on Year/day   15/077    530.20
!     Soil H20 (final) on Year/day   15/224    403.55
!     Effective Irrigation                       0.00
!     Precipitation                            293.00
!     Water added with new mulch                 0.00
!     Net lateral flow                           0.00
!     Drainage                                  42.93
!     Tiledrain flow                             0.00
!     Runoff                                    10.37
!     Mulch evaporation                          0.00
!     Soil Evaporation                         109.07
!     Transpiration                            257.30
!     Total evapotranspiration                 366.37
!     Total potential evapotranspiration       558.28

!     Initial mulch water content                0.00
!     Final mulch water content                  0.00

!     Final Balance                            -0.016


*DSSAT Cropping System Model Ver. 4.8.5.000 -release  OCT 27, 2025 22:35:46

*RUN  15        : 15                        WHAPS048 TUDU1501   15
 MODEL          : WHAPS048 - Wheat
 EXPERIMENT     : TUDU1501 WH
 DATA PATH      :
 TREATMENT 15   : 15                        WHAPS048
  

!     WATER BALANCE PARAMETERS
!     ========================                 --mm--

!     Soil H20 (start) on Year/day   15/077    530.20
!     Soil H20 (final) on Year/day   15/224    439.68
!     Effective Irrigation                       0.00
!     Precipitation                            293.00
!     Water added with new mulch                 0.00
!     Net lateral flow                           0.00
!     Drainage                                  81.36
!     Tiledrain flow                             0.00
!     Runoff                                    11.10
!     Mulch evaporation                          0.00
!     Soil Evaporation                         152.62
!     Transpiration                            138.46
!     Total evapotranspiration                 291.08
!     Total potential evapotranspiration       575.80

!     Initial mulch water content                0.00
!     Final mulch water content                  0.00

!     Final Balance                            -0.021

