*SOIL ORGANIC N BALANCE

*DSSAT Cropping System Model Ver. 4.8.5.000 -release  OCT 27, 2025 22:35:44

*RUN   1        : 1                         WHAPS048 TUDU1501    1
 MODEL          : WHAPS048 - Wheat
 EXPERIMENT     : TUDU1501 WH
 DATA PATH      :
 TREATMENT  1   : 1                         WHAPS048
  


!                                        INITIAL Year/Doy      FINAL Year/Doy
!                                                  15/077              15/224
!SOIL N BALANCE                                 -----------kg N/ha-----------

!   Soil Humus N                                 15342.15            15306.56
!   Soil Litter N                                   14.00               10.77
!   N in Surface Residue                             0.00                0.00

!   Added to / Removed from Soil:
!   N in Harvest Residues from Previous Crop         0.00
!   N from Organic Applications                      0.00
!   N from senesced plant matter                     0.00
!   N immobilized                                    0.58
!   N mineralized                                                       39.39

!   Total N balance                              15356.72            15356.72
!   Balance                                                             0.000

!===============================================================================

*DSSAT Cropping System Model Ver. 4.8.5.000 -release  OCT 27, 2025 22:35:44

*RUN   2        : 2                         WHAPS048 TUDU1501    2
 MODEL          : WHAPS048 - Wheat
 EXPERIMENT     : TUDU1501 WH
 DATA PATH      :
 TREATMENT  2   : 2                         WHAPS048
  


!                                        INITIAL Year/Doy      FINAL Year/Doy
!                                                  15/077              15/224
!SOIL N BALANCE                                 -----------kg N/ha-----------

!   Soil Humus N                                 15342.15            15306.61
!   Soil Litter N                                   14.00               10.77
!   N in Surface Residue                             0.00                0.00

!   Added to / Removed from Soil:
!   N in Harvest Residues from Previous Crop         0.00
!   N from Organic Applications                      0.00
!   N from senesced plant matter                     0.00
!   N immobilized                                    0.58
!   N mineralized                                                       39.34

!   Total N balance                              15356.72            15356.72
!   Balance                                                            -0.001

!===============================================================================

*DSSAT Cropping System Model Ver. 4.8.5.000 -release  OCT 27, 2025 22:35:44

*RUN   3        : 3                         WHAPS048 TUDU1501    3
 MODEL          : WHAPS048 - Wheat
 EXPERIMENT     : TUDU1501 WH
 DATA PATH      :
 TREATMENT  3   : 3                         WHAPS048
  


!                                        INITIAL Year/Doy      FINAL Year/Doy
!                                                  15/077              15/224
!SOIL N BALANCE                                 -----------kg N/ha-----------

!   Soil Humus N                                 15342.15            15303.68
!   Soil Litter N                                   14.00               10.23
!   N in Surface Residue                             0.00                0.00

!   Added to / Removed from Soil:
!   N in Harvest Residues from Previous Crop         0.00
!   N from Organic Applications                      0.00
!   N from senesced plant matter                     0.00
!   N immobilized                                    0.55
!   N mineralized                                                       42.79

!   Total N balance                              15356.70            15356.70
!   Balance                                                             0.000

!===============================================================================

*DSSAT Cropping System Model Ver. 4.8.5.000 -release  OCT 27, 2025 22:35:44

*RUN   4        : 4                         WHAPS048 TUDU1501    4
 MODEL          : WHAPS048 - Wheat
 EXPERIMENT     : TUDU1501 WH
 DATA PATH      :
 TREATMENT  4   : 4                         WHAPS048
  


!                                        INITIAL Year/Doy      FINAL Year/Doy
!                                                  15/077              15/224
!SOIL N BALANCE                                 -----------kg N/ha-----------

!   Soil Humus N                                 15342.15            15306.59
!   Soil Litter N                                   14.00               10.77
!   N in Surface Residue                             0.00                0.00

!   Added to / Removed from Soil:
!   N in Harvest Residues from Previous Crop         0.00
!   N from Organic Applications                      0.00
!   N from senesced plant matter                     0.00
!   N immobilized                                    0.58
!   N mineralized                                                       39.35

!   Total N balance                              15356.72            15356.72
!   Balance                                                            -0.002

!===============================================================================

*DSSAT Cropping System Model Ver. 4.8.5.000 -release  OCT 27, 2025 22:35:44

*RUN   5        : 5                         WHAPS048 TUDU1501    5
 MODEL          : WHAPS048 - Wheat
 EXPERIMENT     : TUDU1501 WH
 DATA PATH      :
 TREATMENT  5   : 5                         WHAPS048
  


!                                        INITIAL Year/Doy      FINAL Year/Doy
!                                                  15/077              15/224
!SOIL N BALANCE                                 -----------kg N/ha-----------

!   Soil Humus N                                 15342.15            15306.92
!   Soil Litter N                                   14.00               10.77
!   N in Surface Residue                             0.00                0.00

!   Added to / Removed from Soil:
!   N in Harvest Residues from Previous Crop         0.00
!   N from Organic Applications                      0.00
!   N from senesced plant matter                     0.00
!   N immobilized                                    0.58
!   N mineralized                                                       39.03

!   Total N balance                              15356.72            15356.72
!   Balance                                                            -0.003

!===============================================================================

*DSSAT Cropping System Model Ver. 4.8.5.000 -release  OCT 27, 2025 22:35:45

*RUN   6        : 6                         WHAPS048 TUDU1501    6
 MODEL          : WHAPS048 - Wheat
 EXPERIMENT     : TUDU1501 WH
 DATA PATH      :
 TREATMENT  6   : 6                         WHAPS048
  


!                                        INITIAL Year/Doy      FINAL Year/Doy
!                                                  15/077              15/224
!SOIL N BALANCE                                 -----------kg N/ha-----------

!   Soil Humus N                                 15342.15            15306.55
!   Soil Litter N                                   14.00               10.77
!   N in Surface Residue                             0.00                0.00

!   Added to / Removed from Soil:
!   N in Harvest Residues from Previous Crop         0.00
!   N from Organic Applications                      0.00
!   N from senesced plant matter                     0.00
!   N immobilized                                    0.58
!   N mineralized                                                       39.40

!   Total N balance                              15356.72            15356.72
!   Balance                                                            -0.002

!===============================================================================

*DSSAT Cropping System Model Ver. 4.8.5.000 -release  OCT 27, 2025 22:35:45

*RUN   7        : 7                         WHAPS048 TUDU1501    7
 MODEL          : WHAPS048 - Wheat
 EXPERIMENT     : TUDU1501 WH
 DATA PATH      :
 TREATMENT  7   : 7                         WHAPS048
  


!                                        INITIAL Year/Doy      FINAL Year/Doy
!                                                  15/077              15/224
!SOIL N BALANCE                                 -----------kg N/ha-----------

!   Soil Humus N                                 15342.15            15306.89
!   Soil Litter N                                   14.00               10.78
!   N in Surface Residue                             0.00                0.00

!   Added to / Removed from Soil:
!   N in Harvest Residues from Previous Crop         0.00
!   N from Organic Applications                      0.00
!   N from senesced plant matter                     0.00
!   N immobilized                                    0.58
!   N mineralized                                                       39.05

!   Total N balance                              15356.72            15356.72
!   Balance                                                            -0.004

!===============================================================================

*DSSAT Cropping System Model Ver. 4.8.5.000 -release  OCT 27, 2025 22:35:45

*RUN   8        : 8                         WHAPS048 TUDU1501    8
 MODEL          : WHAPS048 - Wheat
 EXPERIMENT     : TUDU1501 WH
 DATA PATH      :
 TREATMENT  8   : 8                         WHAPS048
  


!                                        INITIAL Year/Doy      FINAL Year/Doy
!                                                  15/077              15/224
!SOIL N BALANCE                                 -----------kg N/ha-----------

!   Soil Humus N                                 15342.15            15307.07
!   Soil Litter N                                   14.00               10.80
!   N in Surface Residue                             0.00                0.00

!   Added to / Removed from Soil:
!   N in Harvest Residues from Previous Crop         0.00
!   N from Organic Applications                      0.00
!   N from senesced plant matter                     0.00
!   N immobilized                                    0.58
!   N mineralized                                                       38.85

!   Total N balance                              15356.72            15356.72
!   Balance                                                            -0.002

!===============================================================================

*DSSAT Cropping System Model Ver. 4.8.5.000 -release  OCT 27, 2025 22:35:45

*RUN   9        : 9                         WHAPS048 TUDU1501    9
 MODEL          : WHAPS048 - Wheat
 EXPERIMENT     : TUDU1501 WH
 DATA PATH      :
 TREATMENT  9   : 9                         WHAPS048
  


!                                        INITIAL Year/Doy      FINAL Year/Doy
!                                                  15/077              15/224
!SOIL N BALANCE                                 -----------kg N/ha-----------

!   Soil Humus N                                 15342.15            15307.30
!   Soil Litter N                                   14.00               10.84
!   N in Surface Residue                             0.00                0.00

!   Added to / Removed from Soil:
!   N in Harvest Residues from Previous Crop         0.00
!   N from Organic Applications                      0.00
!   N from senesced plant matter                     0.00
!   N immobilized                                    0.58
!   N mineralized                                                       38.58

!   Total N balance                              15356.72            15356.72
!   Balance                                                            -0.002

!===============================================================================

*DSSAT Cropping System Model Ver. 4.8.5.000 -release  OCT 27, 2025 22:35:45

*RUN  10        : 10                        WHAPS048 TUDU1501   10
 MODEL          : WHAPS048 - Wheat
 EXPERIMENT     : TUDU1501 WH
 DATA PATH      :
 TREATMENT 10   : 10                        WHAPS048
  


!                                        INITIAL Year/Doy      FINAL Year/Doy
!                                                  15/077              15/224
!SOIL N BALANCE                                 -----------kg N/ha-----------

!   Soil Humus N                                 15342.15            15303.68
!   Soil Litter N                                   14.00               10.23
!   N in Surface Residue                             0.00                0.00

!   Added to / Removed from Soil:
!   N in Harvest Residues from Previous Crop         0.00
!   N from Organic Applications                      0.00
!   N from senesced plant matter                     0.00
!   N immobilized                                    0.55
!   N mineralized                                                       42.79

!   Total N balance                              15356.70            15356.70
!   Balance                                                             0.000

!===============================================================================

*DSSAT Cropping System Model Ver. 4.8.5.000 -release  OCT 27, 2025 22:35:45

*RUN  11        : 11                        WHAPS048 TUDU1501   11
 MODEL          : WHAPS048 - Wheat
 EXPERIMENT     : TUDU1501 WH
 DATA PATH      :
 TREATMENT 11   : 11                        WHAPS048
  


!                                        INITIAL Year/Doy      FINAL Year/Doy
!                                                  15/077              15/224
!SOIL N BALANCE                                 -----------kg N/ha-----------

!   Soil Humus N                                 15342.15            15307.27
!   Soil Litter N                                   14.00               10.83
!   N in Surface Residue                             0.00                0.00

!   Added to / Removed from Soil:
!   N in Harvest Residues from Previous Crop         0.00
!   N from Organic Applications                      0.00
!   N from senesced plant matter                     0.00
!   N immobilized                                    0.58
!   N mineralized                                                       38.61

!   Total N balance                              15356.72            15356.72
!   Balance                                                            -0.001

!===============================================================================

*DSSAT Cropping System Model Ver. 4.8.5.000 -release  OCT 27, 2025 22:35:45

*RUN  12        : 12                        WHAPS048 TUDU1501   12
 MODEL          : WHAPS048 - Wheat
 EXPERIMENT     : TUDU1501 WH
 DATA PATH      :
 TREATMENT 12   : 12                        WHAPS048
  


!                                        INITIAL Year/Doy      FINAL Year/Doy
!                                                  15/077              15/224
!SOIL N BALANCE                                 -----------kg N/ha-----------

!   Soil Humus N                                 15342.15            15307.28
!   Soil Litter N                                   14.00               10.83
!   N in Surface Residue                             0.00                0.00

!   Added to / Removed from Soil:
!   N in Harvest Residues from Previous Crop         0.00
!   N from Organic Applications                      0.00
!   N from senesced plant matter                     0.00
!   N immobilized                                    0.58
!   N mineralized                                                       38.61

!   Total N balance                              15356.72            15356.72
!   Balance                                                            -0.002

!===============================================================================

*DSSAT Cropping System Model Ver. 4.8.5.000 -release  OCT 27, 2025 22:35:45

*RUN  13        : 13                        WHAPS048 TUDU1501   13
 MODEL          : WHAPS048 - Wheat
 EXPERIMENT     : TUDU1501 WH
 DATA PATH      :
 TREATMENT 13   : 13                        WHAPS048
  


!                                        INITIAL Year/Doy      FINAL Year/Doy
!                                                  15/077              15/224
!SOIL N BALANCE                                 -----------kg N/ha-----------

!   Soil Humus N                                 15342.15            15307.05
!   Soil Litter N                                   14.00               10.80
!   N in Surface Residue                             0.00                0.00

!   Added to / Removed from Soil:
!   N in Harvest Residues from Previous Crop         0.00
!   N from Organic Applications                      0.00
!   N from senesced plant matter                     0.00
!   N immobilized                                    0.58
!   N mineralized                                                       38.88

!   Total N balance                              15356.72            15356.72
!   Balance                                                            -0.002

!===============================================================================

*DSSAT Cropping System Model Ver. 4.8.5.000 -release  OCT 27, 2025 22:35:45

*RUN  14        : 14                        WHAPS048 TUDU1501   14
 MODEL          : WHAPS048 - Wheat
 EXPERIMENT     : TUDU1501 WH
 DATA PATH      :
 TREATMENT 14   : 14                        WHAPS048
  


!                                        INITIAL Year/Doy      FINAL Year/Doy
!                                                  15/077              15/224
!SOIL N BALANCE                                 -----------kg N/ha-----------

!   Soil Humus N                                 15342.15            15306.89
!   Soil Litter N                                   14.00               10.77
!   N in Surface Residue                             0.00                0.00

!   Added to / Removed from Soil:
!   N in Harvest Residues from Previous Crop         0.00
!   N from Organic Applications                      0.00
!   N from senesced plant matter                     0.00
!   N immobilized                                    0.58
!   N mineralized                                                       39.06

!   Total N balance                              15356.72            15356.72
!   Balance                                                            -0.004

!===============================================================================

*DSSAT Cropping System Model Ver. 4.8.5.000 -release  OCT 27, 2025 22:35:46

*RUN  15        : 15                        WHAPS048 TUDU1501   15
 MODEL          : WHAPS048 - Wheat
 EXPERIMENT     : TUDU1501 WH
 DATA PATH      :
 TREATMENT 15   : 15                        WHAPS048
  


!                                        INITIAL Year/Doy      FINAL Year/Doy
!                                                  15/077              15/224
!SOIL N BALANCE                                 -----------kg N/ha-----------

!   Soil Humus N                                 15342.15            15303.25
!   Soil Litter N                                   14.00               10.12
!   N in Surface Residue                             0.00                0.00

!   Added to / Removed from Soil:
!   N in Harvest Residues from Previous Crop         0.00
!   N from Organic Applications                      0.00
!   N from senesced plant matter                     0.00
!   N immobilized                                    0.55
!   N mineralized                                                       43.32

!   Total N balance                              15356.70            15356.70
!   Balance                                                             0.000
