*Soil Inorganic Nitrogen daily output file

*DSSAT Cropping System Model Ver. 4.8.5.000 -release  OCT 27, 2025 22:35:44

*RUN   1        : 1                         WHAPS048 TUDU1501    1
 MODEL          : WHAPS048 - Wheat
 EXPERIMENT     : TUDU1501 WH
 DATA PATH      :
 TREATMENT  1   : 1                         WHAPS048
  
!                                                                                                                                      NO3 (ppm) at soil dep. (cm):                                            NH4 (ppm) at soil dep. (cm):                                            Total Inorganic N @dep(ppm):
!                                                                                                                                       0-5    5-15   15-30   30-45   45-60   60-80  80-100 100-150 150-200     0-5    5-15   15-30   30-45   45-60   60-80  80-100 100-150 150-200     0-5    5-15   15-30   30-45   45-60   60-80  80-100 100-150 150-200
@YEAR DOY   DAS  NAPC  NI#M    NIAD    NITD    NHTD   NURTD    NMNC    NITC    NDNC    NIMC    AMLC   NNMNC    NUCM    NLCC    TDNC    NI1D    NI2D    NI3D    NI4D    NI5D    NI6D    NI7D    NI8D    NI9D    NH1D    NH2D    NH3D    NH4D    NH5D    NH6D    NH7D    NH8D    NH9D    NT1D    NT2D    NT3D    NT4D    NT5D    NT6D    NT7D    NT8D    NT9D    
   15 076     0     0     0    86.5    57.7    28.8     0.0    0.00    0.00    0.00    0.00    0.00    0.00    0.00    0.00    0.00    6.00     5.0     4.0    3.00    3.00    2.00    2.00    1.00    1.00    3.00    2.50    2.00    1.50    1.50    1.00    1.00    0.50    0.50    9.00    7.50    6.00    4.50    4.50    3.00    3.00    1.50    1.50
   15 077     1     0     0    86.5    61.2    25.2     0.0    0.05    3.55    0.00    0.09    0.00   -0.04    0.00    0.00    0.00    6.33     5.3     4.2    3.18    3.18    2.13    2.12    1.07    1.07    2.62    2.17    1.76    1.31    1.32    0.87    0.88    0.44    0.44    8.96    7.46    6.00    4.50    4.50    3.00    3.00    1.50    1.50
   15 078     2     0     0    86.4    64.2    22.3     0.0    0.10    6.52    0.00    0.16    0.00   -0.06    0.00    0.00    0.00    6.70     5.5     4.4    3.33    3.33    2.23    2.23    1.12    1.12    2.32    1.90    1.56    1.16    1.17    0.77    0.77    0.38    0.39    9.01    7.40    5.99    4.49    4.50    3.00    3.00    1.50    1.51
   15 079     3     0     0    86.4    66.6    19.8     0.0    0.14    8.98    0.00    0.21    0.00   -0.07    0.00    0.00    0.00    7.02     5.7     4.6    3.46    3.46    2.32    2.32    1.17    1.17    2.07    1.69    1.39    1.03    1.04    0.68    0.69    0.34    0.34    9.09    7.34    5.98    4.49    4.50    3.00    3.00    1.51    1.51
   15 080     4     0     0    86.4    68.7    17.8     0.0    0.18   11.02    0.00    0.24    0.00   -0.06    0.00    0.00    0.00    7.30     5.8     4.7    3.56    3.56    2.39    2.39    1.21    1.21    1.87    1.51    1.26    0.93    0.94    0.61    0.62    0.30    0.31    9.17    7.29    5.97    4.49    4.50    3.00    3.00    1.51    1.51
   15 081     5     0     0    86.4    70.4    16.1     0.0    0.20   12.73    0.00    0.26    0.00   -0.05    0.00    0.00    0.00    7.55     5.9     4.8    3.65    3.64    2.45    2.45    1.24    1.24    1.71    1.37    1.14    0.84    0.85    0.55    0.56    0.27    0.27    9.26    7.25    5.96    4.49    4.49    3.00    3.00    1.51    1.51
   15 082     6     0     0    86.4    71.8    14.7     0.0    0.21   14.14    0.00    0.26    0.00   -0.04    0.00    0.00    0.00    7.75     6.0     4.9    3.72    3.72    2.50    2.50    1.26    1.27    1.58    1.27    1.05    0.77    0.78    0.50    0.51    0.24    0.25    9.33    7.22    5.96    4.49    4.49    3.00    3.00    1.51    1.51
   15 083     7     0     0    86.4    73.0    13.4     0.0    0.22   15.36    0.00    0.26    0.00   -0.04    0.00    0.00    0.00    7.96     6.0     5.0    3.78    3.78    2.54    2.54    1.29    1.29    1.47    1.18    0.97    0.71    0.72    0.46    0.46    0.22    0.22    9.43    7.18    5.95    4.48    4.49    3.00    3.00    1.51    1.51
   15 084     8     0     0    86.4    74.1    12.3     0.0    0.22   16.48    0.00    0.26    0.00   -0.04    0.00    0.00    0.00    8.16     6.1     5.0    3.83    3.83    2.58    2.58    1.31    1.31    1.37    1.09    0.90    0.65    0.66    0.42    0.42    0.20    0.20    9.53    7.15    5.95    4.48    4.49    3.00    3.00    1.51    1.51
   15 085     9     0     0    86.4    75.2    11.3     0.0    0.23   17.55    0.00    0.26    0.00   -0.03    0.00    0.00    0.00    8.37     6.1     5.1    3.88    3.89    2.62    2.62    1.33    1.33    1.27    1.01    0.83    0.60    0.60    0.38    0.38    0.18    0.18    9.64    7.11    5.94    4.48    4.49    3.00    3.00    1.51    1.52
   15 086    10     0     0    86.4    76.1    10.3     0.0    0.24   18.53    0.00    0.26    0.00   -0.02    0.00    0.00    0.00    8.53     6.2     5.2    3.93    3.94    2.65    2.65    1.35    1.35    1.17    0.93    0.76    0.55    0.55    0.35    0.35    0.16    0.16    9.70    7.09    5.93    4.48    4.49    3.00    3.00    1.51    1.52
   15 087    11     0     0    86.4    77.1     9.4     0.0    0.26   19.46    0.00    0.27    0.00   -0.01    0.00    0.00    0.00    8.73     6.2     5.2    3.98    3.98    2.68    2.69    1.36    1.37    1.08    0.85    0.70    0.50    0.50    0.31    0.32    0.15    0.15    9.81    7.05    5.93    4.48    4.49    3.00    3.00    1.51    1.52
   15 088    12     0     0    86.4    77.9     8.5     0.0    0.28   20.34    0.00    0.28    0.00    0.00    0.00    0.00    0.00    8.92     6.2     5.3    4.02    4.03    2.71    2.72    1.38    1.38    0.99    0.77    0.64    0.45    0.46    0.28    0.29    0.13    0.13    9.91    7.00    5.92    4.48    4.49    3.00    3.00    1.51    1.52
   15 089    13     0     0    86.4    78.8     7.7     0.0    0.31   21.17    0.00    0.29    0.00    0.01    0.00    0.00    0.00    7.95     6.8     5.3    4.07    4.07    2.74    2.74    1.39    1.40    0.91    0.69    0.58    0.41    0.41    0.26    0.26    0.12    0.12    8.86    7.53    5.91    4.47    4.49    3.00    3.00    1.51    1.52
   15 090    14     0     0    86.3    79.3     6.9     0.0    0.33   21.89    0.00    0.31    0.00    0.02    0.17    0.00    0.00    7.07     7.1     5.5    4.10    4.11    2.77    2.77    1.40    1.41    0.80    0.63    0.53    0.37    0.38    0.23    0.23    0.11    0.11    7.87    7.76    5.99    4.47    4.48    3.00    3.00    1.51    1.52
   15 091    15     0     0    86.2    79.9     6.3     0.0    0.35   22.54    0.00    0.32    0.00    0.03    0.24    0.00    0.00    6.77     7.2     5.6    4.19    4.12    2.78    2.78    1.41    1.42    0.73    0.56    0.48    0.34    0.34    0.21    0.21    0.10    0.10    7.50    7.75    6.09    4.52    4.46    2.99    2.99    1.51    1.52
   15 092    16     0     0    86.1    80.3     5.7     0.0    0.37   23.10    0.00    0.33    0.00    0.04    0.39    0.00    0.00    6.46     7.1     5.8    4.29    4.16    2.80    2.78    1.42    1.43    0.66    0.51    0.44    0.31    0.31    0.19    0.19    0.09    0.09    7.12    7.61    6.19    4.59    4.47    2.98    2.98    1.51    1.52
   15 093    17     0     0    86.0    80.7     5.3     0.0    0.39   23.56    0.00    0.34    0.00    0.05    0.42    0.06    0.00    6.33     6.8     5.7    4.39    4.17    2.88    2.81    1.45    1.44    0.62    0.47    0.41    0.28    0.29    0.17    0.17    0.08    0.08    6.96    7.23    6.15    4.67    4.46    3.06    2.99    1.53    1.53
   15 094    18     0     0    85.9    81.1     4.8     0.0    0.39   23.98    0.00    0.34    0.00    0.05    0.46    0.06    0.00    6.75     6.7     5.8    4.42    4.17    2.88    2.80    1.46    1.45    0.58    0.44    0.38    0.27    0.27    0.16    0.16    0.07    0.07    7.33    7.16    6.16    4.69    4.44    3.04    2.96    1.53    1.52
   15 095    19     0     0    85.8    81.3     4.5     0.0    0.39   24.34    0.00    0.34    0.00    0.05    0.56    0.09    0.00    6.62     6.5     5.8    4.49    4.18    2.95    2.82    1.48    1.46    0.54    0.41    0.35    0.25    0.25    0.14    0.15    0.07    0.07    7.16    6.89    6.12    4.74    4.43    3.09    2.97    1.54    1.53
   15 096    20     0     0    85.8    81.6     4.2     0.0    0.39   24.66    0.00    0.34    0.00    0.05    0.61    0.09    0.00    7.22     6.4     5.7    4.49    4.18    2.96    2.82    1.48    1.46    0.50    0.38    0.33    0.23    0.23    0.13    0.14    0.06    0.06    7.73    6.78    6.06    4.72    4.41    3.09    2.95    1.54    1.52
   15 097    21     0     0    85.7    81.9     3.9     0.0    0.39   24.96    0.00    0.34    0.00    0.05    0.64    0.09    0.00    7.86     6.3     5.7    4.48    4.17    2.96    2.82    1.48    1.47    0.47    0.36    0.31    0.22    0.21    0.12    0.12    0.06    0.06    8.33    6.69    6.00    4.70    4.39    3.09    2.94    1.54    1.52
   15 098    22    40     1   108.5    82.1    26.4    16.4    0.39   25.24    0.00    0.34    0.80    0.05    0.68    0.09    0.00    9.17     6.2     5.6    4.46    4.13    2.96    2.80    1.48    1.47   35.77    0.34    0.29    0.20    0.20    0.11    0.12    0.05    0.05   44.94    6.52    5.89    4.66    4.33    3.07    2.91    1.53    1.52
   15 099    23    40     1   114.9    83.9    31.0     9.4    0.39   26.93    0.00    0.34    1.29    0.05    0.76    0.09    0.00   11.54     6.2     5.6    4.47    4.15    2.96    2.81    1.49    1.47   43.39    0.31    0.27    0.19    0.18    0.11    0.11    0.05    0.05   54.94    6.48    5.88    4.66    4.33    3.07    2.91    1.53    1.52
   15 100    24    40     1   118.3    86.0    32.4     5.2    0.39   29.15    0.00    0.34    1.74    0.05    1.12    0.09    0.00   14.58     6.1     5.6    4.48    4.16    2.97    2.82    1.49    1.48   45.84    0.29    0.25    0.17    0.17    0.10    0.10    0.04    0.04   60.42    6.42    5.87    4.66    4.33    3.07    2.91    1.53    1.52
   15 101    25    40     1   119.9    88.3    31.7     2.6    0.41   31.81    0.00    0.35    1.94    0.06    1.92    0.09    0.00   18.03     6.0     5.6    4.50    4.18    2.98    2.82    1.50    1.48   45.14    0.25    0.23    0.16    0.15    0.09    0.09    0.04    0.04   63.17    6.28    5.87    4.65    4.33    3.07    2.91    1.53    1.52
   15 102    26    40     1   120.7    91.0    29.6     1.2    0.45   34.86    0.00    0.37    2.11    0.08    2.45    0.09    0.00   22.21     5.9     5.7    4.51    4.19    2.99    2.83    1.50    1.49   42.36    0.21    0.20    0.14    0.14    0.08    0.08    0.04    0.04   64.57    6.14    5.86    4.65    4.33    3.07    2.91    1.54    1.52
   15 103    27    40     1   120.4    93.8    26.6     0.5    0.52   38.13    0.00    0.40    2.24    0.12    3.27    0.09    0.00   26.59     5.7     5.7    4.53    4.21    3.00    2.84    1.51    1.49   38.08    0.16    0.18    0.12    0.12    0.07    0.07    0.03    0.04   64.67    5.89    5.85    4.65    4.33    3.07    2.92    1.54    1.53
   15 104    28    40     1   119.8    96.4    23.4     0.2    0.60   41.25    0.00    0.43    2.36    0.17    4.11    0.09    0.00   30.83     5.4     5.7    4.54    4.22    3.01    2.85    1.51    1.49   33.51    0.11    0.16    0.11    0.11    0.06    0.07    0.03    0.04   64.34    5.53    5.84    4.65    4.33    3.07    2.92    1.54    1.53
   15 105    29    40     1   119.1    98.3    20.7     0.1    0.69   43.85    0.00    0.46    2.49    0.23    4.86    0.09    0.00   34.47     5.0     5.7    4.55    4.23    3.02    2.86    1.51    1.50   29.60    0.07    0.14    0.10    0.10    0.06    0.06    0.03    0.03   64.07    5.09    5.81    4.65    4.33    3.08    2.92    1.55    1.53
   15 106    30    40     1   118.5   100.1    18.4     0.0    0.79   46.09    0.00    0.48    2.59    0.31    5.44    0.09    0.00   37.69     4.7     5.7    4.56    4.25    3.03    2.87    1.52    1.50   26.29    0.04    0.12    0.08    0.09    0.05    0.06    0.03    0.03   63.98    4.69    5.77    4.65    4.34    3.08    2.93    1.55    1.54
   15 107    31    40     1   118.0   101.5    16.5     0.0    0.91   48.04    0.00    0.49    2.68    0.41    5.99    0.09    0.00   13.24    14.2     7.4    4.89    4.36    3.03    2.88    1.52    1.51   23.46    0.02    0.10    0.07    0.08    0.05    0.05    0.03    0.04   36.69   14.25    7.55    4.97    4.44    3.08    2.93    1.56    1.54
   15 108    32    40     1   115.6   101.2    14.4     0.0    1.03   49.27    0.00    0.52    2.69    0.51    8.20    0.33    0.00   13.51    12.4     7.6    5.14    4.43    3.17    2.92    1.58    1.52   20.29    0.01    0.10    0.07    0.08    0.05    0.05    0.03    0.04   33.80   12.43    7.65    5.21    4.51    3.22    2.98    1.61    1.56
   15 109    33    40     1   114.5   102.1    12.4     0.0    1.13   50.79    0.00    0.54    2.71    0.59    9.29    0.41    0.00   16.36    11.4     7.5    5.21    4.43    3.21    2.93    1.60    1.53   17.34    0.00    0.09    0.06    0.07    0.04    0.05    0.03    0.03   33.71   11.42    7.59    5.27    4.50    3.25    2.98    1.63    1.56
   15 110    34    40     1   113.4   102.8    10.6     0.0    1.22   52.13    0.00    0.56    2.73    0.67   10.44    0.41    0.00   20.01    10.7     7.3    5.15    4.38    3.19    2.90    1.59    1.53   14.67    0.00    0.08    0.06    0.07    0.04    0.05    0.03    0.03   34.68   10.67    7.43    5.21    4.44    3.23    2.95    1.63    1.56
   15 111    35    40     1   111.9   102.8     9.1     0.0    1.29   53.16    0.00    0.56    2.75    0.73   11.98    0.41    0.00   22.91    10.0     7.1    5.08    4.32    3.17    2.87    1.59    1.53   12.35    0.00    0.07    0.06    0.06    0.04    0.04    0.03    0.03   35.27    9.96    7.19    5.13    4.38    3.21    2.92    1.62    1.56
   15 112    36    40     1   109.9   102.2     7.7     0.0    1.35   53.97    0.00    0.57    2.76    0.78   14.00    0.41    0.00   22.79     9.6     7.1    5.08    4.32    3.18    2.88    1.59    1.53   10.33    0.00    0.07    0.05    0.06    0.04    0.04    0.03    0.03   33.12    9.59    7.12    5.13    4.38    3.21    2.92    1.62    1.56
   15 113    37    40     1   107.5   101.0     6.5     0.0    1.41   54.65    0.00    0.57    2.77    0.84   16.43    0.41    0.00   22.47     9.0     6.9    5.07    4.33    3.18    2.88    1.60    1.54    8.59    0.00    0.06    0.05    0.05    0.03    0.04    0.03    0.03   31.06    8.98    6.98    5.12    4.38    3.21    2.92    1.63    1.57
   15 114    38    40     1   106.0   100.2     5.7     0.0    1.47   55.26    0.00    0.57    2.77    0.90   18.03    0.41    0.00   22.76     8.4     6.8    5.07    4.33    3.18    2.88    1.60    1.54    7.45    0.00    0.06    0.05    0.05    0.03    0.04    0.03    0.03   30.21    8.44    6.82    5.11    4.38    3.21    2.92    1.63    1.57
   15 115    39    40     1   103.6    98.6     5.1     0.0    1.55   55.83    0.00    0.57    2.78    0.97   20.46    0.41    0.00   23.01     7.5     6.5    5.04    4.34    3.19    2.89    1.60    1.54    6.44    0.00    0.05    0.04    0.05    0.03    0.04    0.03    0.03   29.45    7.50    6.50    5.09    4.39    3.22    2.92    1.63    1.57
   15 116    40    40     1   101.7    97.2     4.4     0.0    1.63   56.35    0.00    0.57    2.78    1.06   22.48    0.41    0.00   23.13     6.8     6.2    5.01    4.34    3.19    2.89    1.61    1.55    5.51    0.00    0.05    0.04    0.05    0.03    0.03    0.03    0.03   28.64    6.85    6.22    5.05    4.39    3.22    2.93    1.63    1.57
   15 117    41    40     1    98.9    95.2     3.8     0.0    1.75   56.83    0.00    0.57    2.78    1.18   25.34    0.41    0.00   21.65     6.6     5.8    4.96    4.35    3.19    2.90    1.61    1.55    4.48    0.00    0.04    0.04    0.05    0.03    0.03    0.03    0.03   26.13    6.59    5.84    5.00    4.39    3.22    2.93    1.64    1.58
   15 118    42    40     1    95.0    92.3     2.7     0.0    1.88   57.20    0.00    0.57    2.79    1.30   29.41    0.41    0.00   15.08     7.8     5.6    4.93    4.35    3.20    2.90    1.61    1.55    2.82    0.01    0.04    0.04    0.05    0.03    0.03    0.03    0.03   17.90    7.85    5.68    4.97    4.40    3.23    2.93    1.64    1.58
   15 119    43    40     1    92.8    90.5     2.3     0.0    2.02   57.46    0.00    0.57    2.79    1.44   31.68    0.41    0.00   13.17     7.8     5.5    4.89    4.34    3.19    2.90    1.62    1.56    2.14    0.01    0.04    0.04    0.05    0.03    0.03    0.03    0.03   15.31    7.80    5.51    4.93    4.39    3.22    2.93    1.64    1.59
   15 120    44    40     1    91.2    89.3     1.9     0.0    2.15   57.72    0.00    0.58    2.81    1.58   33.40    0.41    0.00   12.48     7.6     5.3    4.83    4.31    3.18    2.88    1.62    1.56    1.58    0.01    0.04    0.04    0.05    0.03    0.04    0.03    0.03   14.07    7.60    5.38    4.87    4.35    3.21    2.92    1.64    1.59
   15 121    45    40     1    88.0    86.5     1.5     0.0    2.29   57.92    0.00    0.58    2.81    1.71   36.76    0.41    0.00    4.18     6.1     6.6    5.51    4.53    3.23    2.87    1.62    1.56    0.93    0.02    0.04    0.04    0.05    0.03    0.04    0.03    0.03    5.11    6.12    6.61    5.54    4.57    3.26    2.90    1.64    1.59
   15 122    46    40     1    85.7    84.3     1.3     0.0    2.39   58.04    0.00    0.58    2.82    1.82   39.18    0.41    0.00    3.08     5.2     6.0    5.53    4.74    3.35    2.92    1.62    1.56    0.65    0.02    0.04    0.04    0.05    0.03    0.03    0.03    0.03    3.73    5.18    6.01    5.57    4.79    3.39    2.96    1.65    1.59
   15 123    47    40     1    82.7    81.6     1.1     0.0    2.49   58.15    0.00    0.58    2.82    1.91   42.23    0.41    0.00    1.39     4.0     5.4    5.47    4.91    3.50    2.99    1.64    1.56    0.32    0.02    0.04    0.04    0.05    0.03    0.03    0.03    0.03    1.71    3.98    5.45    5.51    4.96    3.53    3.03    1.67    1.59
   15 124    48    40     1    79.9    78.8     1.1     0.0    2.60   58.25    0.00    0.58    2.83    2.03   44.19    1.39    0.00    1.11     3.2     4.5    4.96    4.74    3.58    3.07    1.76    1.60    0.22    0.03    0.04    0.04    0.05    0.03    0.03    0.03    0.03    1.33    3.18    4.57    5.00    4.79    3.62    3.10    1.79    1.63
   15 125    49    40     1    77.0    76.0     1.0     0.0    2.78   58.36    0.00    0.58    2.84    2.20   47.28    1.39    0.00    0.57     2.4     3.9    4.68    4.74    3.64    3.10    1.78    1.60    0.06    0.03    0.04    0.04    0.05    0.03    0.04    0.03    0.03    0.63    2.43    3.91    4.72    4.79    3.67    3.14    1.81    1.63
   15 126    50    40     1    74.3    73.3     1.0     0.0    3.00   58.49    0.02    0.58    2.84    2.42   50.15    1.39    0.00    0.23     1.3     3.1    4.45    4.83    3.75    3.16    1.80    1.62    0.03    0.03    0.04    0.04    0.05    0.04    0.04    0.03    0.03    0.26    1.29    3.16    4.49    4.88    3.79    3.20    1.83    1.65
   15 127    51    40     1    71.7    70.6     1.1     0.0    3.25   58.61    0.09    0.58    2.85    2.67   51.47    2.80    0.00    0.20     1.0     2.5    3.74    4.40    3.74    3.23    1.92    1.65    0.03    0.05    0.05    0.05    0.05    0.04    0.04    0.03    0.03    0.23    1.06    2.55    3.79    4.45    3.78    3.27    1.95    1.68
   15 128    52    40     1    69.1    67.9     1.2     0.0    3.52   58.75    0.11    0.58    2.85    2.94   53.73    3.41    0.00    0.13     0.8     2.0    3.20    4.08    3.71    3.25    1.97    1.67    0.02    0.05    0.05    0.05    0.06    0.04    0.04    0.04    0.04    0.15    0.84    2.04    3.25    4.14    3.75    3.30    2.00    1.70
   15 129    53    40     1    66.5    65.3     1.2     0.0    3.80   58.91    0.12    0.58    2.85    3.23   56.62    3.41    0.00    0.07     0.5     1.5    2.73    3.83    3.71    3.26    1.98    1.67    0.03    0.05    0.04    0.05    0.06    0.05    0.05    0.04    0.04    0.09    0.60    1.58    2.77    3.89    3.76    3.30    2.01    1.71
   15 130    54    40     1    63.6    62.3     1.3     0.0    4.08   59.07    0.12    0.58    2.85    3.50   59.70    3.49    0.00    0.03     0.4     1.1    2.21    3.43    3.70    3.26    1.99    1.68    0.03    0.05    0.04    0.04    0.06    0.05    0.05    0.04    0.04    0.06    0.40    1.16    2.25    3.49    3.75    3.31    2.03    1.72
   15 131    55    40     1    60.9    59.6     1.2     0.0    4.33   59.22    0.12    0.58    2.85    3.75   62.65    3.49    0.00    0.02     0.2     0.8    1.75    2.98    3.70    3.25    1.99    1.68    0.02    0.05    0.04    0.04    0.05    0.05    0.05    0.04    0.04    0.04    0.28    0.84    1.78    3.03    3.75    3.31    2.03    1.72
   15 132    56    40     1    58.6    57.3     1.3     0.0    4.60   59.39    0.13    0.58    2.85    4.02   65.21    3.49    0.00    0.02     0.2     0.6    1.37    2.50    3.69    3.25    1.99    1.68    0.03    0.05    0.04    0.04    0.05    0.05    0.05    0.04    0.04    0.05    0.21    0.62    1.41    2.55    3.74    3.30    2.03    1.72
   15 133    57    40     1    56.7    55.5     1.3     0.0    4.90   59.56    0.13    0.58    2.85    4.32   67.36    3.49    0.00    0.02     0.1     0.4    1.08    2.05    3.68    3.24    1.99    1.69    0.04    0.06    0.04    0.04    0.04    0.05    0.05    0.04    0.04    0.06    0.18    0.47    1.12    2.10    3.74    3.30    2.04    1.73
   15 134    58    40     1    55.2    53.9     1.3     0.0    5.22   59.76    0.13    0.58    2.85    4.65   69.23    3.49    0.00    0.01     0.1     0.3    0.86    1.66    3.65    3.24    2.00    1.69    0.03    0.06    0.04    0.04    0.04    0.06    0.06    0.04    0.04    0.04    0.14    0.37    0.90    1.71    3.70    3.30    2.04    1.74
   15 135    59    40     1    53.9    52.5     1.3     0.0    5.56   59.96    0.13    0.58    2.85    4.98   70.90    3.49    0.00    0.00     0.1     0.3    0.68    1.34    3.58    3.24    2.00    1.70    0.03    0.06    0.04    0.04    0.04    0.06    0.06    0.04    0.04    0.04    0.12    0.29    0.72    1.38    3.64    3.30    2.05    1.74
   15 136    60    40     1    52.7    51.3     1.3     0.0    5.88   60.16    0.13    0.58    2.85    5.30   72.41    3.49    0.00    0.00     0.0     0.2    0.53    1.05    3.49    3.25    2.01    1.71    0.03    0.06    0.04    0.04    0.04    0.06    0.06    0.05    0.04    0.04    0.10    0.23    0.57    1.09    3.55    3.31    2.06    1.75
   15 137    61    40     1    51.6    50.3     1.4     0.0    6.20   60.36    0.13    0.58    2.85    5.63   73.77    3.49    0.00    0.00     0.0     0.1    0.42    0.81    3.37    3.26    2.02    1.71    0.04    0.06    0.04    0.04    0.04    0.05    0.06    0.05    0.04    0.05    0.09    0.19    0.45    0.85    3.43    3.32    2.06    1.76
   15 138    62    40     1    50.7    49.4     1.3     0.0    6.50   60.55    0.13    0.58    2.85    5.92   74.99    3.49    0.00    0.00     0.0     0.1    0.33    0.64    3.23    3.27    2.02    1.72    0.04    0.06    0.04    0.04    0.04    0.05    0.06    0.05    0.04    0.05    0.09    0.15    0.37    0.68    3.28    3.33    2.07    1.76
   15 139    63    40     1    49.9    48.6     1.3     0.0    6.78   60.74    0.13    0.58    2.85    6.21   76.10    3.49    0.00    0.01     0.0     0.1    0.26    0.50    3.07    3.28    2.03    1.72    0.05    0.06    0.04    0.04    0.04    0.05    0.06    0.05    0.04    0.06    0.08    0.13    0.30    0.54    3.12    3.34    2.08    1.77
   15 140    64    40     1    49.1    47.8     1.3     0.0    7.06   60.92    0.13    0.58    2.85    6.49   77.17    3.49    0.00    0.00     0.0     0.1    0.22    0.41    2.88    3.28    2.04    1.73    0.06    0.06    0.04    0.04    0.04    0.05    0.06    0.05    0.04    0.06    0.07    0.10    0.26    0.45    2.93    3.34    2.08    1.77
   15 141    65    40     1    48.3    47.0     1.3     0.0    7.33   61.08    0.13    0.58    2.85    6.75   78.19    3.49    0.00    0.01     0.0     0.0    0.15    0.34    2.70    3.29    2.04    1.74    0.06    0.07    0.04    0.03    0.04    0.05    0.06    0.05    0.04    0.07    0.08    0.08    0.18    0.38    2.75    3.35    2.09    1.78
   15 142    66    40     1    47.4    46.1     1.3     0.0    7.58   61.24    0.13    0.58    2.86    7.00   79.16    3.75    0.00    0.00     0.0     0.0    0.09    0.25    2.38    3.25    2.08    1.76    0.05    0.07    0.04    0.03    0.03    0.05    0.06    0.04    0.04    0.06    0.08    0.06    0.12    0.28    2.43    3.31    2.12    1.80
   15 143    67    40     1    46.6    45.4     1.2     0.0    7.80   61.39    0.13    0.58    2.86    7.23   80.12    3.75    0.00    0.00     0.0     0.0    0.06    0.18    2.21    3.25    2.08    1.76    0.03    0.05    0.03    0.03    0.03    0.04    0.06    0.04    0.04    0.03    0.06    0.05    0.09    0.21    2.26    3.31    2.13    1.80
   15 144    68    40     1    46.0    44.9     1.1     0.0    8.00   61.52    0.13    0.58    2.86    7.42   80.94    3.75    0.00    0.00     0.0     0.0    0.04    0.13    2.02    3.26    2.09    1.77    0.03    0.04    0.03    0.03    0.02    0.04    0.05    0.04    0.04    0.03    0.05    0.04    0.07    0.15    2.06    3.32    2.14    1.81
   15 145    69    40     1    45.1    44.0     1.1     0.0    8.18   61.64    0.13    0.58    2.86    7.61   81.67    4.07    0.00    0.00     0.0     0.0    0.03    0.09    1.76    3.18    2.12    1.78    0.02    0.04    0.02    0.02    0.02    0.04    0.05    0.04    0.04    0.02    0.04    0.03    0.05    0.11    1.80    3.24    2.16    1.82
   15 146    70    40     1    44.6    43.5     1.1     0.0    8.41   61.76    0.13    0.58    2.86    7.84   82.33    4.14    0.00    0.00     0.0     0.0    0.02    0.06    1.59    3.17    2.13    1.79    0.02    0.04    0.02    0.02    0.02    0.04    0.06    0.04    0.04    0.02    0.04    0.03    0.04    0.08    1.63    3.22    2.17    1.83
   15 147    71    40     1    44.3    43.2     1.1     0.0    8.66   61.88    0.13    0.58    2.86    8.08   82.94    4.14    0.00    0.00     0.0     0.0    0.01    0.05    1.45    3.17    2.13    1.79    0.03    0.04    0.02    0.02    0.02    0.04    0.06    0.04    0.04    0.03    0.04    0.03    0.04    0.07    1.49    3.23    2.17    1.83
   15 148    72    40     1    43.9    42.8     1.1     0.0    8.90   62.01    0.13    0.58    2.86    8.33   83.51    4.14    0.00    0.00     0.0     0.0    0.01    0.03    1.32    3.17    2.14    1.80    0.03    0.04    0.02    0.02    0.02    0.04    0.06    0.04    0.04    0.03    0.04    0.02    0.03    0.06    1.36    3.23    2.18    1.84
   15 149    73    40     1    43.7    42.5     1.1     0.0    9.16   62.14    0.13    0.58    2.86    8.58   84.05    4.14    0.00    0.00     0.0     0.0    0.01    0.03    1.20    3.18    2.14    1.80    0.03    0.04    0.02    0.02    0.02    0.04    0.06    0.04    0.04    0.03    0.04    0.02    0.03    0.05    1.24    3.23    2.18    1.84
   15 150    74    40     1    43.4    42.3     1.1     0.0    9.43   62.28    0.13    0.58    2.86    8.86   84.56    4.14    0.00    0.00     0.0     0.0    0.01    0.03    1.08    3.18    2.15    1.81    0.03    0.04    0.02    0.02    0.02    0.04    0.06    0.04    0.04    0.03    0.05    0.03    0.03    0.05    1.12    3.24    2.19    1.85
   15 151    75    40     1    43.2    42.1     1.2     0.0    9.72   62.42    0.13    0.58    2.86    9.14   85.04    4.14    0.00    0.00     0.0     0.0    0.01    0.02    0.98    3.18    2.15    1.81    0.04    0.05    0.03    0.03    0.02    0.04    0.06    0.04    0.04    0.04    0.05    0.03    0.03    0.05    1.01    3.24    2.20    1.85
   15 152    76    80     2    79.6    42.0    37.6     3.2   10.03   62.58    0.13    0.58    3.06    9.45   85.51    4.14    0.00    0.19     0.0     0.0    0.01    0.02    0.88    3.19    2.16    1.82   56.54    0.05    0.03    0.03    0.03    0.04    0.06    0.04    0.04   56.73    0.06    0.03    0.03    0.05    0.92    3.25    2.20    1.86
   15 153    77    80     2    76.3    47.2    29.1     0.7   10.41   67.99    0.13    0.58    3.23    9.83   91.51    4.14    0.00    8.33     0.0     0.0    0.01    0.02    0.81    3.19    2.16    1.82   43.25    0.07    0.03    0.03    0.03    0.04    0.06    0.05    0.04   51.58    0.07    0.04    0.04    0.05    0.85    3.25    2.21    1.87
   15 154    78    80     2    71.1    50.0    21.1     0.1   10.85   72.76    0.13    0.58    3.41   10.27   97.51    4.14    0.00   12.77     0.0     0.0    0.01    0.03    0.77    3.19    2.17    1.83   30.63    0.08    0.04    0.04    0.04    0.04    0.07    0.05    0.04   43.40    0.10    0.05    0.05    0.07    0.81    3.26    2.22    1.87
   15 155    79    80     2    65.6    51.2    14.4     0.0   11.32   76.37    0.13    0.58    3.51   10.74  103.51    4.14    0.00   14.56     0.0     0.0    0.02    0.03    0.72    3.18    2.18    1.84   20.12    0.09    0.05    0.04    0.04    0.05    0.07    0.05    0.05   34.68    0.11    0.06    0.06    0.07    0.77    3.25    2.23    1.88
   15 156    80    80     2    61.8    51.8    10.0     0.0   11.82   79.05    0.13    0.58    3.55   11.24  107.80    4.14    0.00   15.62     0.0     0.0    0.02    0.03    0.65    3.17    2.19    1.85   13.18    0.10    0.05    0.05    0.05    0.05    0.07    0.05    0.05   28.81    0.12    0.07    0.06    0.08    0.70    3.24    2.24    1.89
   15 157    81    80     2    60.3    52.8     7.4     0.0   12.35   81.27    0.13    0.58    3.58   11.78  109.81    4.14    0.00   17.36     0.0     0.0    0.02    0.03    0.59    3.14    2.20    1.85    9.10    0.10    0.05    0.05    0.05    0.05    0.07    0.05    0.05   26.46    0.14    0.07    0.07    0.08    0.64    3.21    2.25    1.90
   15 158    82    80     2    54.8    50.4     4.4     0.0   12.91   82.55    0.13    0.58    3.61   12.34  115.81    4.14    0.00   13.54     0.1     0.0    0.03    0.04    0.56    3.11    2.21    1.86    4.24    0.11    0.06    0.06    0.05    0.05    0.07    0.05    0.05   17.78    0.16    0.09    0.09    0.09    0.61    3.18    2.27    1.92
   15 159    83    80     2    52.1    48.9     3.1     0.0   13.46   83.44    0.13    0.58    3.64   12.89  119.07    4.14    0.00    6.11     2.6     0.1    0.04    0.04    0.51    3.05    2.22    1.88    2.26    0.11    0.06    0.06    0.06    0.06    0.07    0.06    0.05    8.37    2.73    0.12    0.09    0.10    0.57    3.11    2.28    1.93
   15 160    84    80     2    47.0    44.6     2.3     0.0   14.03   83.87    0.13    0.58    3.65   13.46  124.71    4.14    0.00    3.13     0.9     0.1    0.04    0.05    0.47    2.95    2.24    1.89    1.02    0.09    0.06    0.06    0.06    0.06    0.07    0.06    0.05    4.15    0.99    0.16    0.10    0.10    0.53    3.02    2.29    1.94
   15 161    85    80     2    43.2    41.5     1.7     0.0   14.56   84.18    0.13    0.58    3.65   13.98  129.00    4.14    0.00    0.00     0.2     0.1    0.05    0.05    0.44    2.85    2.25    1.90    0.07    0.09    0.06    0.06    0.06    0.06    0.07    0.06    0.05    0.07    0.32    0.14    0.10    0.11    0.49    2.92    2.31    1.95
   15 162    86    80     2    42.6    41.0     1.7     0.0   15.03   84.46    0.13    0.58    3.65   14.46  130.04    4.14    0.00    0.00     0.1     0.1    0.05    0.05    0.40    2.74    2.26    1.90    0.06    0.08    0.06    0.06    0.05    0.06    0.07    0.06    0.05    0.06    0.14    0.12    0.10    0.11    0.46    2.81    2.32    1.96
   15 163    87    80     2    42.2    40.6     1.6     0.0   15.48   84.73    0.13    0.58    3.65   14.90  130.88    4.14    0.00    0.00     0.0     0.0    0.05    0.06    0.37    2.62    2.27    1.91    0.06    0.07    0.05    0.05    0.05    0.05    0.06    0.06    0.05    0.06    0.09    0.10    0.10    0.11    0.43    2.69    2.32    1.97
   15 164    88    80     2    41.9    40.3     1.6     0.0   15.91   84.99    0.13    0.58    3.65   15.34  131.69    4.14    0.00    0.00     0.0     0.0    0.05    0.06    0.35    2.48    2.28    1.92    0.06    0.07    0.05    0.05    0.05    0.05    0.06    0.06    0.05    0.06    0.08    0.09    0.10    0.11    0.41    2.55    2.33    1.97
   15 165    89    80     2    41.5    39.9     1.6     0.0   16.37   85.26    0.13    0.58    3.65   15.80  132.51    4.14    0.00    0.00     0.0     0.0    0.06    0.06    0.33    2.34    2.29    1.93    0.07    0.07    0.05    0.05    0.05    0.05    0.06    0.06    0.05    0.07    0.08    0.09    0.11    0.11    0.39    2.40    2.34    1.98
   15 166    90    80     2    41.2    39.5     1.7     0.0   16.89   85.56    0.13    0.58    3.65   16.31  133.31    4.14    0.00    0.00     0.0     0.0    0.06    0.07    0.31    2.18    2.30    1.94    0.09    0.11    0.05    0.05    0.05    0.05    0.06    0.06    0.05    0.09    0.12    0.07    0.11    0.12    0.37    2.24    2.35    1.99
   15 167    91    80     2    40.9    39.2     1.7     0.0   17.41   85.85    0.13    0.58    3.65   16.84  134.14    4.14    0.00    0.01     0.0     0.0    0.04    0.08    0.30    2.03    2.31    1.95    0.10    0.13    0.06    0.05    0.05    0.05    0.06    0.06    0.05    0.10    0.15    0.08    0.09    0.13    0.35    2.09    2.37    2.00
   15 168    92    80     2    40.5    38.8     1.7     0.0   17.94   86.13    0.13    0.58    3.65   17.36  135.13    4.14    0.00    0.00     0.0     0.0    0.03    0.05    0.28    1.88    2.32    1.96    0.07    0.12    0.06    0.05    0.05    0.06    0.06    0.06    0.05    0.07    0.14    0.08    0.07    0.10    0.34    1.93    2.38    2.01
   15 169    93    80     2    39.9    38.3     1.6     0.0   18.42   86.38    0.13    0.58    3.65   17.85  136.13    4.14    0.00    0.00     0.0     0.0    0.02    0.04    0.25    1.73    2.33    1.97    0.07    0.09    0.05    0.04    0.04    0.05    0.06    0.06    0.05    0.07    0.10    0.06    0.06    0.08    0.31    1.79    2.39    2.02
   15 170    94    80     2    39.4    37.8     1.6     0.0   18.85   86.61    0.13    0.58    3.65   18.27  136.99    4.27    0.00    0.00     0.0     0.0    0.02    0.02    0.21    1.52    2.33    1.99    0.08    0.09    0.04    0.04    0.04    0.05    0.06    0.06    0.05    0.08    0.10    0.05    0.06    0.06    0.26    1.57    2.39    2.05
   15 171    95    80     2    38.7    37.2     1.5     0.0   19.23   86.82    0.13    0.58    3.65   18.65  137.88    4.46    0.00    0.00     0.0     0.0    0.01    0.02    0.18    1.34    2.33    2.01    0.05    0.07    0.04    0.04    0.03    0.05    0.05    0.06    0.05    0.05    0.08    0.04    0.05    0.05    0.22    1.39    2.39    2.06
   15 172    96    80     2    38.2    36.8     1.4     0.0   19.59   87.01    0.13    0.58    3.65   19.01  138.67    4.47    0.00    0.00     0.0     0.0    0.01    0.01    0.16    1.20    2.34    2.01    0.05    0.06    0.03    0.03    0.03    0.04    0.05    0.06    0.05    0.05    0.06    0.04    0.04    0.05    0.20    1.25    2.39    2.07
   15 173    97    80     2    37.9    36.5     1.3     0.0   19.94   87.19    0.13    0.58    3.65   19.36  139.38    4.47    0.00    0.00     0.0     0.0    0.01    0.01    0.14    1.08    2.34    2.02    0.05    0.05    0.03    0.03    0.03    0.04    0.05    0.05    0.05    0.05    0.05    0.03    0.04    0.04    0.18    1.13    2.40    2.07
   15 174    98    80     2    37.6    36.3     1.3     0.0   20.29   87.37    0.13    0.58    3.65   19.71  139.99    4.47    0.00    0.00     0.0     0.0    0.01    0.01    0.12    0.97    2.35    2.03    0.06    0.06    0.03    0.03    0.03    0.04    0.05    0.05    0.05    0.07    0.06    0.03    0.04    0.04    0.16    1.01    2.40    2.08
   15 175    99    80     2    37.0    35.7     1.3     0.0   20.64   87.54    0.13    0.58    3.65   20.06  140.59    4.82    0.00    0.00     0.0     0.0    0.01    0.01    0.10    0.82    2.32    2.04    0.05    0.06    0.03    0.03    0.03    0.04    0.04    0.05    0.05    0.06    0.07    0.03    0.04    0.04    0.14    0.87    2.37    2.09
   15 176   100    80     2    36.7    35.4     1.3     0.0   21.00   87.71    0.13    0.58    3.65   20.43  141.17    4.89    0.00    0.00     0.0     0.0    0.01    0.01    0.09    0.73    2.32    2.05    0.05    0.06    0.03    0.03    0.03    0.04    0.04    0.05    0.05    0.05    0.06    0.03    0.04    0.04    0.13    0.77    2.37    2.10
   15 177   101    80     2    36.6    35.3     1.3     0.0   21.38   87.89    0.13    0.58    3.65   20.80  141.70    4.89    0.00    0.00     0.0     0.0    0.01    0.01    0.08    0.65    2.33    2.06    0.05    0.06    0.03    0.03    0.03    0.04    0.04    0.05    0.05    0.05    0.06    0.03    0.04    0.04    0.12    0.69    2.38    2.11
   15 178   102    80     2    36.5    35.2     1.3     0.0   21.78   88.08    0.13    0.58    3.65   21.21  142.18    4.89    0.00    0.00     0.0     0.0    0.01    0.01    0.07    0.58    2.34    2.07    0.05    0.06    0.03    0.03    0.03    0.04    0.04    0.05    0.05    0.05    0.06    0.03    0.04    0.04    0.11    0.62    2.39    2.12
   15 179   103    80     2    36.5    35.1     1.4     0.0   22.19   88.27    0.13    0.58    3.65   21.62  142.61    4.89    0.00    0.00     0.0     0.0    0.01    0.01    0.06    0.52    2.34    2.08    0.06    0.07    0.03    0.03    0.03    0.04    0.04    0.05    0.05    0.06    0.07    0.04    0.04    0.04    0.10    0.56    2.40    2.13
   15 180   104    80     2    36.5    35.1     1.4     0.0   22.64   88.49    0.13    0.58    3.65   22.06  143.03    4.89    0.00    0.01     0.0     0.0    0.01    0.01    0.06    0.46    2.35    2.09    0.07    0.08    0.04    0.04    0.04    0.04    0.04    0.05    0.05    0.08    0.08    0.04    0.05    0.05    0.10    0.51    2.41    2.14
   15 181   105    80     2    36.6    35.1     1.5     0.0   23.11   88.73    0.13    0.58    3.65   22.54  143.42    4.89    0.00    0.02     0.0     0.0    0.01    0.01    0.06    0.42    2.36    2.09    0.09    0.08    0.04    0.04    0.04    0.04    0.05    0.05    0.05    0.10    0.10    0.05    0.05    0.05    0.10    0.46    2.42    2.15
   15 182   106    80     2    36.7    35.2     1.6     0.0   23.63   89.01    0.13    0.58    3.65   23.06  143.78    4.89    0.00    0.03     0.0     0.0    0.02    0.02    0.06    0.38    2.37    2.10    0.10    0.09    0.05    0.05    0.04    0.05    0.05    0.06    0.05    0.13    0.11    0.06    0.06    0.06    0.10    0.43    2.43    2.16
   15 183   107   120     3    73.3    35.5    37.8     3.3   24.16   89.32    0.13    0.58    4.05   23.59  144.11    4.89    0.00    0.28     0.0     0.0    0.02    0.02    0.06    0.34    2.38    2.11   56.21    0.10    0.05    0.05    0.05    0.05    0.05    0.06    0.05   56.49    0.13    0.07    0.07    0.07    0.11    0.39    2.44    2.17
   15 184   108   120     3    74.9    42.7    32.2     1.3   24.70   96.59    0.13    0.58    4.54   24.13  144.41    4.89    0.00   11.22     0.0     0.0    0.03    0.03    0.06    0.32    2.39    2.13   47.48    0.11    0.06    0.05    0.05    0.05    0.05    0.06    0.05   58.70    0.15    0.08    0.08    0.08    0.11    0.37    2.45    2.18
   15 185   109   120     3    74.9    48.9    26.0     0.6   25.25  102.85    0.13    0.58    5.51   24.68  144.69    4.89    0.00   20.56     0.1     0.0    0.04    0.03    0.06    0.30    2.41    2.14   37.72    0.11    0.06    0.06    0.05    0.05    0.05    0.06    0.06   58.28    0.17    0.09    0.09    0.09    0.12    0.35    2.46    2.19
   15 186   110   120     3    72.6    54.0    18.5     0.3   25.81  107.99    0.13    0.58    8.42   25.24  144.94    4.89    0.00   28.13     0.1     0.0    0.04    0.04    0.07    0.28    2.42    2.15   26.09    0.11    0.06    0.06    0.06    0.06    0.06    0.06    0.06   54.22    0.19    0.10    0.10    0.10    0.13    0.34    2.48    2.21
   15 187   111   120     3    63.8    57.7     6.1     0.2   26.38  111.70    0.13    0.58   17.67   25.80  145.17    4.89    0.00   33.30     0.1     0.0    0.06    0.05    0.08    0.27    2.43    2.16    6.79    0.11    0.06    0.06    0.06    0.06    0.06    0.06    0.06   40.09    0.22    0.11    0.11    0.11    0.14    0.33    2.49    2.22
   15 188   112   120     3    61.4    58.8     2.5     0.1   26.93  112.98    0.13    0.58   20.47   26.36  145.37    4.89    0.00   34.60     0.1     0.1    0.07    0.06    0.09    0.26    2.45    2.18    1.26    0.10    0.06    0.06    0.06    0.06    0.06    0.06    0.06   35.87    0.24    0.13    0.13    0.12    0.15    0.32    2.51    2.24
   15 189   113   120     3    59.2    57.1     2.1     0.0   27.52  113.67    0.13    0.58   20.64   26.94  148.04    4.89    0.00   28.17     1.8     0.1    0.08    0.08    0.10    0.26    2.46    2.19    0.59    0.10    0.06    0.06    0.05    0.06    0.06    0.06    0.06   28.76    1.85    0.14    0.14    0.13    0.16    0.32    2.52    2.25
   15 190   114   120     3    53.7    51.8     1.9     0.0   28.08  114.21    0.13    0.58   20.70   27.50  154.04    4.89    0.00   19.40     1.7     0.1    0.10    0.09    0.11    0.27    2.48    2.21    0.25    0.10    0.06    0.06    0.05    0.06    0.06    0.06    0.06   19.64    1.84    0.16    0.15    0.15    0.17    0.33    2.54    2.26
   15 191   115   120     3    51.0    49.1     1.8     0.0   28.57  114.65    0.13    0.58   20.74   28.00  157.24    4.89    0.00   14.72     1.7     0.1    0.11    0.10    0.12    0.28    2.49    2.22    0.14    0.10    0.06    0.05    0.05    0.06    0.06    0.06    0.06   14.86    1.84    0.17    0.16    0.16    0.18    0.34    2.55    2.28
   15 192   116   120     3    51.2    49.4     1.8     0.0   28.99  115.05    0.13    0.58   20.79   28.42  157.43    4.89    0.00   14.50     1.7     0.1    0.12    0.11    0.14    0.29    2.50    2.23    0.10    0.10    0.06    0.06    0.05    0.06    0.06    0.06    0.06   14.61    1.85    0.18    0.18    0.17    0.19    0.35    2.56    2.29
   15 193   117   120     3    51.3    49.6     1.8     0.0   29.37  115.42    0.13    0.58   20.81   28.80  157.60    4.89    0.00   14.33     1.7     0.1    0.13    0.13    0.15    0.30    2.52    2.24    0.09    0.10    0.06    0.05    0.05    0.06    0.06    0.06    0.06   14.42    1.85    0.20    0.19    0.18    0.21    0.37    2.58    2.30
   15 194   118   120     3    51.5    49.8     1.7     0.0   29.71  115.76    0.13    0.58   20.83   29.13  157.74    4.89    0.00   14.28     1.7     0.1    0.14    0.13    0.16    0.31    2.53    2.25    0.07    0.09    0.06    0.05    0.05    0.06    0.06    0.06    0.06   14.35    1.84    0.21    0.19    0.19    0.21    0.37    2.59    2.31
   15 195   119   120     3    51.8    50.1     1.7     0.0   30.04  116.11    0.13    0.58   20.85   29.46  157.78    4.89    0.00   14.27     1.7     0.2    0.15    0.15    0.17    0.32    2.54    2.26    0.07    0.09    0.06    0.05    0.05    0.05    0.06    0.06    0.06   14.34    1.84    0.22    0.20    0.20    0.22    0.38    2.60    2.32
   15 196   120   120     3    52.1    50.4     1.7     0.0   30.39  116.46    0.13    0.58   20.86   29.81  157.84    4.89    0.00   14.27     1.8     0.2    0.16    0.16    0.18    0.33    2.55    2.27    0.07    0.09    0.06    0.05    0.05    0.05    0.06    0.06    0.06   14.33    1.84    0.23    0.21    0.20    0.23    0.39    2.61    2.33
   15 197   121   120     3    52.4    50.7     1.7     0.0   30.76  116.84    0.13    0.58   20.88   30.19  157.89    4.89    0.00   14.31     1.8     0.2    0.17    0.17    0.19    0.34    2.56    2.28    0.06    0.08    0.06    0.05    0.05    0.05    0.06    0.06    0.06   14.37    1.83    0.24    0.22    0.21    0.24    0.40    2.62    2.34
   15 198   122   120     3    52.6    51.0     1.6     0.0   31.14  117.23    0.13    0.58   20.89   30.57  157.99    4.89    0.00   14.35     1.8     0.2    0.18    0.18    0.20    0.34    2.57    2.30    0.06    0.08    0.05    0.05    0.05    0.05    0.06    0.06    0.06   14.40    1.83    0.25    0.23    0.22    0.25    0.40    2.63    2.35
   15 199   123   120     3    52.9    51.3     1.6     0.0   31.52  117.63    0.13    0.58   20.90   30.95  158.07    4.89    0.00   14.38     1.8     0.2    0.20    0.19    0.21    0.34    2.59    2.31    0.05    0.07    0.05    0.04    0.04    0.05    0.05    0.06    0.06   14.44    1.83    0.26    0.24    0.23    0.25    0.40    2.65    2.37
   15 200   124   120     3    53.2    51.7     1.5     0.0   31.90  118.03    0.13    0.58   20.92   31.33  158.13    4.89    0.00   14.42     1.8     0.2    0.21    0.20    0.22    0.35    2.60    2.32    0.05    0.06    0.05    0.04    0.04    0.04    0.05    0.06    0.06   14.47    1.83    0.27    0.25    0.24    0.26    0.40    2.66    2.38
   15 201   125   120     3    53.5    52.0     1.5     0.0   32.28  118.42    0.13    0.58   20.93   31.70  158.18    4.89    0.00   14.46     1.8     0.2    0.22    0.21    0.23    0.36    2.61    2.34    0.05    0.06    0.04    0.04    0.04    0.04    0.05    0.06    0.06   14.50    1.83    0.27    0.25    0.24    0.27    0.41    2.67    2.39
   15 202   126   120     3    53.9    52.4     1.5     0.0   32.65  118.81    0.13    0.58   20.94   32.08  158.23    4.89    0.00   14.49     1.8     0.2    0.23    0.22    0.24    0.37    2.62    2.35    0.04    0.06    0.04    0.04    0.04    0.04    0.05    0.06    0.06   14.53    1.82    0.28    0.26    0.25    0.28    0.42    2.69    2.41
   15 203   127   120     3    54.2    52.7     1.5     0.0   33.02  119.20    0.13    0.58   20.95   32.45  158.28    4.89    0.00   14.52     1.8     0.3    0.24    0.23    0.25    0.38    2.64    2.36    0.04    0.05    0.04    0.03    0.03    0.04    0.04    0.06    0.06   14.56    1.82    0.29    0.27    0.26    0.28    0.42    2.70    2.42
   15 204   128   120     3    54.5    53.1     1.4     0.0   33.39  119.59    0.13    0.58   20.96   32.82  158.31    4.89    0.00   14.56     1.8     0.3    0.25    0.24    0.26    0.39    2.65    2.38    0.03    0.05    0.04    0.03    0.03    0.03    0.04    0.06    0.06   14.59    1.82    0.30    0.28    0.27    0.29    0.43    2.71    2.43
   15 205   129   120     3    54.8    53.4     1.4     0.0   33.75  119.96    0.13    0.58   20.96   33.18  158.35    4.89    0.00   14.59     1.8     0.3    0.26    0.25    0.27    0.40    2.66    2.39    0.04    0.05    0.04    0.03    0.03    0.03    0.04    0.06    0.06   14.63    1.82    0.31    0.29    0.28    0.30    0.44    2.73    2.45
   15 206   130   120     3    55.1    53.7     1.4     0.0   34.11  120.32    0.13    0.58   20.97   33.53  158.38    4.89    0.00   14.62     1.8     0.3    0.27    0.25    0.27    0.40    2.68    2.40    0.04    0.05    0.03    0.03    0.03    0.03    0.04    0.06    0.06   14.66    1.82    0.32    0.29    0.28    0.31    0.44    2.74    2.46
   15 207   131   120     3    55.4    54.1     1.4     0.0   34.45  120.66    0.13    0.58   20.98   33.87  158.41    4.89    0.00   14.65     1.8     0.3    0.27    0.26    0.28    0.41    2.69    2.42    0.04    0.04    0.03    0.03    0.03    0.03    0.04    0.06    0.06   14.69    1.82    0.33    0.30    0.29    0.31    0.45    2.75    2.47
   15 208   132   120     3    55.7    54.3     1.4     0.0   34.75  120.97    0.13    0.58   20.99   34.17  158.45    4.89    0.00   14.69     1.8     0.3    0.28    0.27    0.29    0.42    2.70    2.43    0.03    0.04    0.03    0.03    0.03    0.03    0.04    0.06    0.06   14.72    1.81    0.34    0.31    0.30    0.32    0.45    2.76    2.49
   15 209   133   120     3    55.7    54.4     1.3     0.0   35.04  121.26    0.13    0.58   21.00   34.47  158.71    4.89    0.00   14.36     1.8     0.3    0.29    0.28    0.30    0.42    2.71    2.44    0.05    0.04    0.03    0.03    0.03    0.03    0.04    0.06    0.06   14.42    1.81    0.34    0.31    0.30    0.32    0.46    2.77    2.50
   15 210   134   120     3    55.6    54.2     1.3     0.0   35.32  121.54    0.13    0.58   21.01   34.75  159.13    4.89    0.00   13.79     1.8     0.3    0.29    0.28    0.30    0.43    2.72    2.45    0.06    0.04    0.03    0.03    0.03    0.03    0.04    0.06    0.06   13.86    1.81    0.35    0.32    0.31    0.33    0.46    2.78    2.51
   15 211   135   120     3    55.2    53.9     1.3     0.0   35.58  121.79    0.13    0.58   21.02   35.01  159.72    4.89    0.00   12.96     1.8     0.3    0.30    0.29    0.31    0.43    2.73    2.46    0.06    0.04    0.03    0.02    0.03    0.02    0.04    0.06    0.06   13.02    1.80    0.36    0.32    0.31    0.33    0.47    2.79    2.52
   15 212   136   120     3    55.2    53.9     1.3     0.0   35.82  122.03    0.13    0.58   21.02   35.25  159.93    4.89    0.00   12.72     1.8     0.3    0.30    0.29    0.31    0.44    2.74    2.47    0.08    0.04    0.03    0.02    0.02    0.02    0.04    0.06    0.06   12.80    1.80    0.36    0.33    0.32    0.33    0.47    2.80    2.53
   15 213   137   120     3    55.4    54.1     1.3     0.0   36.06  122.27    0.13    0.58   21.02   35.48  159.98    4.89    0.00   12.73     1.7     0.3    0.31    0.30    0.32    0.44    2.75    2.48    0.09    0.04    0.03    0.02    0.02    0.02    0.03    0.06    0.06   12.82    1.79    0.37    0.33    0.32    0.34    0.47    2.81    2.54
   15 214   138   120     3    55.6    54.3     1.3     0.0   36.29  122.51    0.13    0.58   21.03   35.71  160.00    4.89    0.00   12.76     1.7     0.3    0.31    0.30    0.32    0.44    2.76    2.49    0.10    0.04    0.03    0.02    0.02    0.02    0.03    0.06    0.06   12.86    1.79    0.37    0.34    0.32    0.34    0.48    2.82    2.55
   15 215   139   120     3    55.8    54.5     1.3     0.0   36.52  122.75    0.13    0.58   21.03   35.95  160.03    4.89    0.00   12.80     1.7     0.3    0.32    0.30    0.32    0.45    2.77    2.50    0.10    0.04    0.03    0.02    0.02    0.02    0.03    0.06    0.06   12.90    1.78    0.37    0.34    0.33    0.35    0.48    2.82    2.56
   15 216   140   120     3    56.1    54.8     1.3     0.0   36.77  122.99    0.13    0.58   21.03   36.20  160.05    4.89    0.00   12.84     1.7     0.4    0.32    0.31    0.33    0.45    2.78    2.51    0.10    0.04    0.03    0.02    0.02    0.02    0.03    0.06    0.06   12.94    1.78    0.38    0.34    0.33    0.35    0.49    2.83    2.57
   15 217   141   120     3    56.3    55.0     1.3     0.0   37.04  123.26    0.13    0.58   21.03   36.47  160.08    4.89    0.00   12.88     1.7     0.4    0.33    0.31    0.33    0.46    2.79    2.52    0.10    0.04    0.03    0.02    0.02    0.02    0.03    0.06    0.06   12.98    1.77    0.39    0.35    0.34    0.35    0.49    2.84    2.58
   15 218   142   120     3    56.6    55.3     1.3     0.0   37.33  123.54    0.13    0.58   21.03   36.75  160.11    4.89    0.00   12.92     1.7     0.4    0.33    0.32    0.34    0.47    2.80    2.53    0.10    0.05    0.03    0.02    0.02    0.02    0.03    0.06    0.06   13.02    1.77    0.39    0.36    0.34    0.36    0.50    2.86    2.59
   15 219   143   120     3    56.8    55.5     1.3     0.0   37.64  123.84    0.13    0.58   21.05   37.06  160.13    4.89    0.00   12.96     1.7     0.4    0.34    0.33    0.34    0.47    2.81    2.55    0.08    0.05    0.03    0.02    0.02    0.02    0.03    0.06    0.06   13.03    1.77    0.40    0.36    0.35    0.36    0.50    2.87    2.60
   15 220   144   120     3    57.1    55.8     1.3     0.0   37.96  124.16    0.13    0.58   21.07   37.39  160.16    4.89    0.00   12.99     1.7     0.4    0.34    0.33    0.35    0.48    2.82    2.56    0.06    0.05    0.03    0.02    0.02    0.02    0.03    0.06    0.06   13.05    1.77    0.41    0.37    0.35    0.37    0.51    2.88    2.62
   15 221   145   120     3    57.4    56.1     1.3     0.0   38.31  124.50    0.13    0.58   21.08   37.74  160.18    4.89    0.00   13.03     1.7     0.4    0.35    0.34    0.35    0.49    2.83    2.57    0.05    0.04    0.03    0.02    0.02    0.02    0.03    0.06    0.06   13.08    1.77    0.41    0.37    0.36    0.37    0.52    2.89    2.63
   15 222   146   120     3    57.7    56.5     1.3     0.0   38.67  124.84    0.13    0.58   21.09   38.09  160.21    4.89    0.00   13.06     1.7     0.4    0.36    0.35    0.36    0.49    2.85    2.59    0.05    0.04    0.03    0.02    0.02    0.02    0.03    0.06    0.06   13.11    1.77    0.42    0.38    0.37    0.38    0.53    2.91    2.64
   15 223   147   120     3    58.1    56.8     1.3     0.0   39.03  125.19    0.13    0.58   21.10   38.46  160.23    4.89    0.00   13.10     1.7     0.4    0.37    0.35    0.37    0.50    2.86    2.60    0.04    0.04    0.03    0.02    0.02    0.02    0.03    0.06    0.06   13.14    1.77    0.43    0.39    0.37    0.39    0.53    2.92    2.66
   15 224   148   120     3    58.4    57.1     1.3     0.0   39.39  125.55    0.13    0.58   21.11   38.82  160.23    4.89    0.00   13.13     1.7     0.4    0.37    0.36    0.37    0.51    2.88    2.62    0.04    0.04    0.03    0.02    0.02    0.02    0.03    0.06    0.06   13.17    1.77    0.44    0.40    0.38    0.39    0.54    2.94    2.67

*DSSAT Cropping System Model Ver. 4.8.5.000 -release  OCT 27, 2025 22:35:44

*RUN   2        : 2                         WHAPS048 TUDU1501    2
 MODEL          : WHAPS048 - Wheat
 EXPERIMENT     : TUDU1501 WH
 DATA PATH      :
 TREATMENT  2   : 2                         WHAPS048
  
!                                                                                                                                      NO3 (ppm) at soil dep. (cm):                                            NH4 (ppm) at soil dep. (cm):                                            Total Inorganic N @dep(ppm):
!                                                                                                                                       0-5    5-15   15-30   30-45   45-60   60-80  80-100 100-150 150-200     0-5    5-15   15-30   30-45   45-60   60-80  80-100 100-150 150-200     0-5    5-15   15-30   30-45   45-60   60-80  80-100 100-150 150-200
@YEAR DOY   DAS  NAPC  NI#M    NIAD    NITD    NHTD   NURTD    NMNC    NITC    NDNC    NIMC    AMLC   NNMNC    NUCM    NLCC    TDNC    NI1D    NI2D    NI3D    NI4D    NI5D    NI6D    NI7D    NI8D    NI9D    NH1D    NH2D    NH3D    NH4D    NH5D    NH6D    NH7D    NH8D    NH9D    NT1D    NT2D    NT3D    NT4D    NT5D    NT6D    NT7D    NT8D    NT9D    
   15 076     0     0     0    86.5    57.7    28.8     0.0    0.00    0.00    0.00    0.00    0.00    0.00    0.00    0.00    0.00    6.00     5.0     4.0    3.00    3.00    2.00    2.00    1.00    1.00    3.00    2.50    2.00    1.50    1.50    1.00    1.00    0.50    0.50    9.00    7.50    6.00    4.50    4.50    3.00    3.00    1.50    1.50
   15 077     1     0     0    86.5    61.2    25.2     0.0    0.05    3.55    0.00    0.09    0.00   -0.04    0.00    0.00    0.00    6.33     5.3     4.2    3.18    3.18    2.13    2.12    1.07    1.07    2.62    2.17    1.76    1.31    1.32    0.87    0.88    0.44    0.44    8.96    7.46    6.00    4.50    4.50    3.00    3.00    1.50    1.50
   15 078     2     0     0    86.4    64.2    22.3     0.0    0.10    6.52    0.00    0.16    0.00   -0.06    0.00    0.00    0.00    6.70     5.5     4.4    3.33    3.33    2.23    2.23    1.12    1.12    2.32    1.90    1.56    1.16    1.17    0.77    0.77    0.38    0.39    9.01    7.40    5.99    4.49    4.50    3.00    3.00    1.50    1.51
   15 079     3     0     0    86.4    66.6    19.8     0.0    0.14    8.98    0.00    0.21    0.00   -0.07    0.00    0.00    0.00    7.02     5.7     4.6    3.46    3.46    2.32    2.32    1.17    1.17    2.07    1.69    1.39    1.03    1.04    0.68    0.69    0.34    0.34    9.09    7.34    5.98    4.49    4.50    3.00    3.00    1.51    1.51
   15 080     4     0     0    86.4    68.7    17.8     0.0    0.18   11.02    0.00    0.24    0.00   -0.06    0.00    0.00    0.00    7.30     5.8     4.7    3.56    3.56    2.39    2.39    1.21    1.21    1.87    1.51    1.26    0.93    0.94    0.61    0.62    0.30    0.31    9.17    7.29    5.97    4.49    4.50    3.00    3.00    1.51    1.51
   15 081     5     0     0    86.4    70.4    16.1     0.0    0.20   12.73    0.00    0.26    0.00   -0.05    0.00    0.00    0.00    7.55     5.9     4.8    3.65    3.64    2.45    2.45    1.24    1.24    1.71    1.37    1.14    0.84    0.85    0.55    0.56    0.27    0.27    9.26    7.25    5.96    4.49    4.49    3.00    3.00    1.51    1.51
   15 082     6     0     0    86.4    71.8    14.7     0.0    0.21   14.14    0.00    0.26    0.00   -0.04    0.00    0.00    0.00    7.75     6.0     4.9    3.72    3.72    2.50    2.50    1.26    1.27    1.58    1.27    1.05    0.77    0.78    0.50    0.51    0.24    0.25    9.33    7.22    5.96    4.49    4.49    3.00    3.00    1.51    1.51
   15 083     7     0     0    86.4    73.0    13.4     0.0    0.22   15.36    0.00    0.26    0.00   -0.04    0.00    0.00    0.00    7.96     6.0     5.0    3.78    3.78    2.54    2.54    1.29    1.29    1.47    1.18    0.97    0.71    0.72    0.46    0.46    0.22    0.22    9.43    7.18    5.95    4.48    4.49    3.00    3.00    1.51    1.51
   15 084     8     0     0    86.4    74.1    12.3     0.0    0.22   16.48    0.00    0.26    0.00   -0.04    0.00    0.00    0.00    8.16     6.1     5.0    3.83    3.83    2.58    2.58    1.31    1.31    1.37    1.09    0.90    0.65    0.66    0.42    0.42    0.20    0.20    9.53    7.15    5.95    4.48    4.49    3.00    3.00    1.51    1.51
   15 085     9     0     0    86.4    75.2    11.3     0.0    0.23   17.55    0.00    0.26    0.00   -0.03    0.00    0.00    0.00    8.37     6.1     5.1    3.88    3.89    2.62    2.62    1.33    1.33    1.27    1.01    0.83    0.60    0.60    0.38    0.38    0.18    0.18    9.64    7.11    5.94    4.48    4.49    3.00    3.00    1.51    1.52
   15 086    10     0     0    86.4    76.1    10.3     0.0    0.24   18.53    0.00    0.26    0.00   -0.02    0.00    0.00    0.00    8.53     6.2     5.2    3.93    3.94    2.65    2.65    1.35    1.35    1.17    0.93    0.76    0.55    0.55    0.35    0.35    0.16    0.16    9.70    7.09    5.93    4.48    4.49    3.00    3.00    1.51    1.52
   15 087    11     0     0    86.4    77.1     9.4     0.0    0.26   19.46    0.00    0.27    0.00   -0.01    0.00    0.00    0.00    8.73     6.2     5.2    3.98    3.98    2.68    2.69    1.36    1.37    1.08    0.85    0.70    0.50    0.50    0.31    0.32    0.15    0.15    9.81    7.05    5.93    4.48    4.49    3.00    3.00    1.51    1.52
   15 088    12     0     0    86.4    77.9     8.5     0.0    0.28   20.34    0.00    0.28    0.00    0.00    0.00    0.00    0.00    8.92     6.2     5.3    4.02    4.03    2.71    2.72    1.38    1.38    0.99    0.77    0.64    0.45    0.46    0.28    0.29    0.13    0.13    9.91    7.00    5.92    4.48    4.49    3.00    3.00    1.51    1.52
   15 089    13     0     0    86.4    78.8     7.7     0.0    0.31   21.17    0.00    0.29    0.00    0.01    0.00    0.00    0.00    7.95     6.8     5.3    4.07    4.07    2.74    2.74    1.39    1.40    0.91    0.69    0.58    0.41    0.41    0.26    0.26    0.12    0.12    8.86    7.53    5.91    4.47    4.49    3.00    3.00    1.51    1.52
   15 090    14     0     0    86.3    79.3     6.9     0.0    0.33   21.89    0.00    0.31    0.00    0.02    0.17    0.00    0.00    7.07     7.1     5.5    4.10    4.11    2.77    2.77    1.40    1.41    0.80    0.63    0.53    0.37    0.38    0.23    0.23    0.11    0.11    7.87    7.76    5.99    4.47    4.48    3.00    3.00    1.51    1.52
   15 091    15     0     0    86.2    79.9     6.3     0.0    0.35   22.54    0.00    0.32    0.00    0.03    0.24    0.00    0.00    6.77     7.2     5.6    4.19    4.12    2.78    2.78    1.41    1.42    0.73    0.56    0.48    0.34    0.34    0.21    0.21    0.10    0.10    7.50    7.75    6.09    4.52    4.46    2.99    2.99    1.51    1.52
   15 092    16     0     0    86.1    80.3     5.7     0.0    0.37   23.10    0.00    0.33    0.00    0.04    0.39    0.00    0.00    6.46     7.1     5.8    4.29    4.16    2.80    2.78    1.42    1.43    0.66    0.51    0.44    0.31    0.31    0.19    0.19    0.09    0.09    7.12    7.61    6.19    4.59    4.47    2.98    2.98    1.51    1.52
   15 093    17     0     0    86.0    80.7     5.3     0.0    0.39   23.56    0.00    0.34    0.00    0.05    0.42    0.06    0.00    6.33     6.8     5.7    4.39    4.17    2.88    2.81    1.45    1.44    0.62    0.47    0.41    0.28    0.29    0.17    0.17    0.08    0.08    6.96    7.23    6.15    4.67    4.46    3.06    2.99    1.53    1.53
   15 094    18     0     0    85.9    81.1     4.8     0.0    0.39   23.98    0.00    0.34    0.00    0.05    0.46    0.06    0.00    6.75     6.7     5.8    4.42    4.17    2.88    2.80    1.46    1.45    0.58    0.44    0.38    0.27    0.27    0.16    0.16    0.07    0.07    7.33    7.16    6.16    4.69    4.44    3.04    2.96    1.53    1.52
   15 095    19     0     0    85.8    81.3     4.5     0.0    0.39   24.34    0.00    0.34    0.00    0.05    0.56    0.09    0.00    6.62     6.5     5.8    4.49    4.18    2.95    2.82    1.48    1.46    0.54    0.41    0.35    0.25    0.25    0.14    0.15    0.07    0.07    7.16    6.89    6.12    4.74    4.43    3.09    2.97    1.54    1.53
   15 096    20     0     0    85.8    81.6     4.2     0.0    0.39   24.66    0.00    0.34    0.00    0.05    0.61    0.09    0.00    7.22     6.4     5.7    4.49    4.18    2.96    2.82    1.48    1.46    0.50    0.38    0.33    0.23    0.23    0.13    0.14    0.06    0.06    7.73    6.78    6.06    4.72    4.41    3.09    2.95    1.54    1.52
   15 097    21     0     0    85.7    81.9     3.9     0.0    0.39   24.96    0.00    0.34    0.00    0.05    0.64    0.09    0.00    7.86     6.3     5.7    4.48    4.17    2.96    2.82    1.48    1.47    0.47    0.36    0.31    0.22    0.21    0.12    0.12    0.06    0.06    8.33    6.69    6.00    4.70    4.39    3.09    2.94    1.54    1.52
   15 098    22    40     1   125.7    92.1    33.6     0.0    0.39   25.24    0.00    0.34    0.00    0.05    0.68    0.09    0.00   24.63     6.2     5.6    4.46    4.13    2.96    2.80    1.48    1.47   46.95    0.34    0.29    0.20    0.20    0.11    0.12    0.05    0.05   71.58    6.52    5.89    4.66    4.33    3.07    2.91    1.53    1.52
   15 099    23    40     1   125.6    94.2    31.4     0.0    0.39   27.39    0.00    0.34    0.00    0.05    0.76    0.09    0.00   27.61     6.2     5.6    4.47    4.15    2.96    2.81    1.49    1.47   43.94    0.32    0.27    0.19    0.18    0.11    0.11    0.05    0.05   71.56    6.48    5.88    4.66    4.33    3.07    2.91    1.53    1.52
   15 100    24    40     1   125.2    96.3    29.0     0.0    0.39   29.63    0.00    0.34    0.00    0.05    1.12    0.09    0.00   30.55     6.1     5.6    4.48    4.16    2.97    2.82    1.49    1.48   40.59    0.29    0.25    0.17    0.17    0.10    0.10    0.04    0.04   71.14    6.42    5.87    4.66    4.33    3.07    2.91    1.53    1.52
   15 101    25    40     1   124.4    98.2    26.2     0.0    0.41   32.02    0.00    0.35    0.00    0.06    1.92    0.09    0.00   33.41     6.0     5.6    4.50    4.18    2.98    2.82    1.50    1.48   36.75    0.26    0.23    0.16    0.15    0.09    0.09    0.04    0.04   70.16    6.30    5.87    4.65    4.33    3.07    2.91    1.53    1.52
   15 102    26    40     1   123.9   100.4    23.5     0.0    0.45   34.55    0.00    0.37    0.00    0.08    2.45    0.09    0.00   36.67     6.0     5.7    4.51    4.19    2.99    2.83    1.50    1.49   32.91    0.21    0.20    0.14    0.14    0.08    0.08    0.04    0.04   69.58    6.16    5.86    4.65    4.33    3.07    2.91    1.54    1.52
   15 103    27    40     1   123.1   102.5    20.7     0.0    0.52   37.14    0.00    0.40    0.00    0.12    3.27    0.09    0.00   39.92     5.8     5.7    4.53    4.21    3.00    2.84    1.51    1.49   28.89    0.16    0.18    0.12    0.12    0.07    0.07    0.03    0.04   68.80    5.92    5.85    4.65    4.33    3.07    2.92    1.54    1.53
   15 104    28    40     1   122.3   104.2    18.1     0.0    0.60   39.57    0.00    0.43    0.00    0.17    4.11    0.09    0.00   43.00     5.4     5.7    4.54    4.22    3.01    2.85    1.51    1.49   25.21    0.11    0.16    0.11    0.11    0.06    0.07    0.03    0.04   68.22    5.56    5.84    4.65    4.33    3.07    2.92    1.54    1.53
   15 105    29    40     1   121.6   105.6    16.0     0.0    0.69   41.59    0.00    0.46    0.00    0.23    4.86    0.09    0.00   45.67     5.0     5.7    4.55    4.23    3.02    2.86    1.51    1.50   22.31    0.07    0.14    0.10    0.10    0.06    0.06    0.03    0.03   67.98    5.12    5.81    4.65    4.33    3.08    2.92    1.55    1.53
   15 106    30    40     1   121.1   106.8    14.3     0.0    0.79   43.33    0.00    0.48    0.00    0.31    5.44    0.09    0.00   48.07     4.7     5.7    4.56    4.25    3.03    2.87    1.52    1.50   19.93    0.04    0.12    0.08    0.09    0.05    0.06    0.03    0.03   68.00    4.72    5.77    4.65    4.34    3.08    2.93    1.55    1.54
   15 107    31    40     1   120.7   107.8    12.9     0.0    0.91   44.86    0.00    0.49    0.00    0.41    5.99    0.09    0.00   15.44    17.2     7.9    4.92    4.36    3.03    2.88    1.52    1.51   17.89    0.02    0.10    0.07    0.08    0.05    0.05    0.03    0.04   33.33   17.23    8.00    4.99    4.44    3.08    2.93    1.56    1.54
   15 108    32    40     1   118.3   107.1    11.2     0.0    1.03   45.83    0.00    0.52    0.00    0.51    8.20    0.33    0.00   15.22    15.0     8.2    5.23    4.44    3.17    2.92    1.58    1.52   15.33    0.01    0.10    0.07    0.08    0.05    0.05    0.03    0.04   30.54   14.99    8.26    5.30    4.52    3.22    2.98    1.61    1.56
   15 109    33    40     1   117.2   107.6     9.6     0.0    1.13   47.01    0.00    0.54    0.00    0.59    9.29    0.41    0.00   17.81    13.7     8.2    5.32    4.45    3.21    2.93    1.60    1.53   13.03    0.00    0.09    0.06    0.07    0.04    0.05    0.03    0.03   30.85   13.70    8.24    5.39    4.52    3.25    2.98    1.63    1.56
   15 110    34    40     1   116.1   107.9     8.2     0.0    1.22   48.05    0.00    0.56    0.00    0.67   10.44    0.41    0.00   21.44    12.7     8.0    5.26    4.39    3.19    2.90    1.59    1.53   10.97    0.00    0.08    0.06    0.07    0.04    0.05    0.03    0.03   32.41   12.72    8.05    5.32    4.46    3.23    2.95    1.63    1.56
   15 111    35    40     1   114.7   107.6     7.0     0.0    1.29   48.85    0.00    0.56    0.00    0.73   11.98    0.41    0.00   24.42    11.8     7.7    5.18    4.33    3.17    2.87    1.59    1.53    9.18    0.00    0.07    0.06    0.06    0.04    0.04    0.03    0.03   33.60   11.80    7.78    5.24    4.40    3.21    2.92    1.62    1.56
   15 112    36    40     1   112.7   106.7     6.0     0.0    1.35   49.47    0.00    0.57    0.00    0.78   14.00    0.41    0.00   23.99    11.4     7.6    5.18    4.34    3.18    2.88    1.59    1.53    7.62    0.00    0.07    0.05    0.06    0.04    0.04    0.03    0.03   31.60   11.37    7.70    5.23    4.40    3.21    2.92    1.62    1.56
   15 113    37    40     1   110.3   105.3     5.0     0.0    1.41   50.00    0.00    0.57    0.00    0.84   16.43    0.41    0.00   23.44    10.7     7.5    5.18    4.34    3.18    2.88    1.60    1.54    6.30    0.00    0.06    0.05    0.05    0.03    0.04    0.03    0.03   29.74   10.68    7.55    5.23    4.40    3.21    2.92    1.63    1.57
   15 114    38    40     1   108.8   104.3     4.5     0.0    1.47   50.48    0.00    0.57    0.00    0.90   18.03    0.41    0.00   23.57    10.1     7.3    5.17    4.35    3.18    2.88    1.60    1.54    5.47    0.00    0.06    0.05    0.05    0.03    0.04    0.03    0.03   29.04   10.08    7.39    5.22    4.40    3.22    2.92    1.63    1.57
   15 115    39    40     1   106.4   102.4     4.0     0.0    1.55   50.92    0.00    0.57    0.00    0.97   20.48    0.41    0.00   23.69     9.1     7.0    5.15    4.35    3.19    2.89    1.60    1.54    4.73    0.00    0.05    0.04    0.05    0.03    0.04    0.03    0.03   28.42    9.06    7.07    5.19    4.40    3.22    2.92    1.63    1.57
   15 116    40    40     1   104.5   101.0     3.5     0.0    1.63   51.33    0.00    0.57    0.00    1.06   22.48    0.41    0.00   23.71     8.3     6.7    5.12    4.36    3.19    2.89    1.61    1.55    4.06    0.00    0.05    0.04    0.05    0.03    0.03    0.03    0.03   27.77    8.34    6.79    5.16    4.40    3.22    2.93    1.63    1.57
   15 117    41    40     1   101.6    98.6     3.0     0.0    1.75   51.71    0.00    0.57    0.00    1.18   25.51    0.41    0.00   22.05     8.0     6.3    5.07    4.36    3.19    2.90    1.61    1.55    3.30    0.00    0.04    0.04    0.05    0.03    0.03    0.03    0.03   25.35    7.95    6.38    5.11    4.41    3.22    2.93    1.64    1.58
   15 118    42    40     1    97.8    95.6     2.2     0.0    1.88   52.01    0.00    0.57    0.00    1.30   29.41    0.41    0.00   15.39     9.2     6.2    5.05    4.37    3.20    2.90    1.61    1.55    2.07    0.01    0.04    0.04    0.05    0.03    0.03    0.03    0.03   17.46    9.20    6.20    5.09    4.41    3.23    2.93    1.64    1.58
   15 119    43    40     1    95.7    93.7     1.9     0.0    2.02   52.24    0.00    0.57    0.00    1.44   31.68    0.41    0.00   13.50     9.1     6.0    5.00    4.36    3.19    2.90    1.62    1.56    1.58    0.01    0.04    0.04    0.05    0.03    0.03    0.03    0.03   15.08    9.07    6.03    5.04    4.40    3.23    2.93    1.64    1.59
   15 120    44    40     1    94.1    92.4     1.7     0.0    2.15   52.46    0.00    0.58    0.00    1.58   33.40    0.41    0.00   12.94     8.8     5.8    4.94    4.32    3.18    2.88    1.62    1.56    1.18    0.01    0.04    0.04    0.05    0.03    0.04    0.03    0.03   14.13    8.78    5.86    4.98    4.37    3.22    2.92    1.64    1.59
   15 121    45    40     1    90.8    89.4     1.4     0.0    2.29   52.64    0.00    0.58    0.00    1.71   36.76    0.41    0.00    4.45     6.8     7.2    5.71    4.55    3.23    2.87    1.62    1.56    0.71    0.02    0.04    0.04    0.05    0.03    0.04    0.03    0.03    5.16    6.87    7.28    5.75    4.60    3.27    2.91    1.64    1.59
   15 122    46    40     1    88.5    87.3     1.3     0.0    2.39   52.76    0.00    0.58    0.00    1.82   39.18    0.41    0.00    3.35     5.8     6.6    5.79    4.79    3.36    2.92    1.62    1.56    0.51    0.02    0.04    0.04    0.05    0.03    0.03    0.03    0.03    3.86    5.81    6.64    5.83    4.83    3.39    2.96    1.65    1.59
   15 123    47    40     1    85.6    84.5     1.1     0.0    2.49   52.86    0.00    0.58    0.00    1.91   42.23    0.41    0.00    1.59     4.5     6.0    5.78    4.99    3.50    2.99    1.64    1.56    0.28    0.02    0.04    0.04    0.05    0.03    0.03    0.03    0.03    1.87    4.50    6.06    5.82    5.03    3.53    3.03    1.67    1.59
   15 124    48    40     1    82.6    81.5     1.0     0.0    2.60   52.96    0.01    0.58    0.00    2.03   44.36    1.39    0.00    1.26     3.6     5.0    5.29    4.85    3.61    3.07    1.76    1.60    0.20    0.03    0.04    0.04    0.05    0.03    0.03    0.03    0.03    1.46    3.60    5.09    5.33    4.90    3.64    3.11    1.79    1.63
   15 125    49    40     1    79.3    78.4     1.0     0.0    2.78   53.08    0.01    0.58    0.00    2.20   47.75    1.39    0.00    0.66     2.7     4.3    5.00    4.86    3.66    3.10    1.78    1.60    0.07    0.03    0.04    0.04    0.05    0.03    0.04    0.03    0.03    0.73    2.73    4.36    5.04    4.91    3.70    3.14    1.81    1.63
   15 126    50    40     1    76.4    75.3     1.0     0.0    3.00   53.20    0.03    0.58    0.00    2.42   50.91    1.39    0.00    0.27     1.4     3.5    4.79    4.98    3.79    3.17    1.80    1.62    0.04    0.03    0.04    0.04    0.05    0.04    0.04    0.03    0.03    0.31    1.44    3.52    4.83    5.03    3.82    3.21    1.83    1.65
   15 127    51    40     1    73.7    72.6     1.1     0.0    3.25   53.32    0.10    0.58    0.00    2.67   52.34    2.80    0.00    0.24     1.1     2.8    4.05    4.57    3.80    3.25    1.92    1.65    0.04    0.05    0.05    0.05    0.05    0.04    0.04    0.03    0.03    0.28    1.18    2.84    4.10    4.63    3.84    3.29    1.95    1.69
   15 128    52    40     1    70.9    69.7     1.2     0.0    3.52   53.47    0.13    0.58    0.00    2.94   54.77    3.41    0.00    0.15     0.9     2.2    3.48    4.26    3.77    3.27    1.97    1.67    0.03    0.05    0.05    0.05    0.06    0.04    0.04    0.04    0.04    0.18    0.92    2.26    3.52    4.32    3.82    3.32    2.00    1.70
   15 129    53    40     1    68.1    66.8     1.2     0.0    3.80   53.63    0.14    0.58    0.00    3.23   57.91    3.41    0.00    0.08     0.6     1.7    2.97    4.01    3.78    3.28    1.98    1.67    0.03    0.05    0.04    0.05    0.06    0.05    0.05    0.04    0.04    0.11    0.65    1.74    3.02    4.07    3.82    3.32    2.02    1.71
   15 130    54    40     1    64.9    63.7     1.3     0.0    4.08   53.78    0.14    0.58    0.00    3.50   61.24    3.49    0.00    0.04     0.4     1.2    2.41    3.60    3.77    3.28    1.99    1.68    0.03    0.05    0.04    0.04    0.06    0.05    0.05    0.04    0.04    0.06    0.43    1.27    2.45    3.66    3.82    3.33    2.03    1.72
   15 131    55    40     1    62.0    60.7     1.2     0.0    4.33   53.93    0.14    0.58    0.00    3.75   64.41    3.49    0.00    0.02     0.3     0.9    1.90    3.14    3.77    3.28    1.99    1.68    0.02    0.05    0.04    0.04    0.05    0.05    0.05    0.04    0.04    0.04    0.30    0.91    1.93    3.19    3.82    3.33    2.03    1.72
   15 132    56    40     1    59.5    58.2     1.3     0.0    4.60   54.10    0.14    0.58    0.00    4.02   67.17    3.49    0.00    0.02     0.2     0.6    1.48    2.63    3.76    3.27    1.99    1.68    0.03    0.05    0.04    0.04    0.05    0.05    0.05    0.04    0.04    0.05    0.22    0.67    1.52    2.68    3.81    3.32    2.03    1.72
   15 133    57    40     1    57.5    56.2     1.3     0.0    4.90   54.27    0.14    0.58    0.00    4.32   69.48    3.49    0.00    0.02     0.1     0.5    1.16    2.15    3.75    3.26    2.00    1.69    0.04    0.06    0.04    0.04    0.04    0.05    0.05    0.04    0.04    0.06    0.19    0.50    1.20    2.20    3.80    3.32    2.04    1.73
   15 134    58    40     1    55.8    54.5     1.3     0.0    5.22   54.47    0.14    0.58    0.00    4.65   71.49    3.49    0.00    0.01     0.1     0.4    0.92    1.73    3.71    3.26    2.00    1.69    0.03    0.06    0.04    0.04    0.04    0.06    0.06    0.04    0.04    0.04    0.15    0.39    0.96    1.77    3.77    3.32    2.04    1.74
   15 135    59    40     1    54.3    53.0     1.3     0.0    5.56   54.67    0.14    0.58    0.00    4.98   73.28    3.49    0.00    0.00     0.1     0.3    0.72    1.38    3.64    3.27    2.01    1.70    0.03    0.06    0.04    0.04    0.04    0.06    0.06    0.04    0.04    0.04    0.12    0.31    0.76    1.42    3.70    3.32    2.05    1.74
   15 136    60    40     1    53.1    51.7     1.3     0.0    5.88   54.87    0.14    0.58    0.00    5.31   74.89    3.49    0.00    0.00     0.0     0.2    0.56    1.07    3.55    3.27    2.01    1.71    0.04    0.06    0.04    0.04    0.04    0.06    0.06    0.05    0.04    0.04    0.10    0.24    0.60    1.11    3.60    3.33    2.06    1.75
   15 137    61    40     1    51.9    50.6     1.3     0.0    6.20   55.07    0.14    0.58    0.00    5.63   76.32    3.49    0.00    0.00     0.0     0.2    0.43    0.83    3.42    3.28    2.02    1.71    0.04    0.06    0.04    0.04    0.04    0.05    0.06    0.05    0.04    0.05    0.09    0.19    0.47    0.87    3.47    3.34    2.07    1.76
   15 138    62    40     1    51.0    49.6     1.3     0.0    6.50   55.26    0.14    0.58    0.00    5.93   77.60    3.49    0.00    0.00     0.0     0.1    0.34    0.64    3.26    3.29    2.03    1.72    0.05    0.06    0.04    0.04    0.04    0.05    0.06    0.05    0.04    0.05    0.08    0.16    0.38    0.68    3.32    3.35    2.07    1.76
   15 139    63    40     1    50.1    48.8     1.3     0.0    6.78   55.44    0.14    0.58    0.00    6.21   78.76    3.49    0.00    0.01     0.0     0.1    0.27    0.50    3.09    3.30    2.03    1.73    0.05    0.06    0.04    0.04    0.04    0.05    0.06    0.05    0.04    0.06    0.08    0.13    0.31    0.54    3.14    3.36    2.08    1.77
   15 140    64    40     1    49.3    47.9     1.3     0.0    7.06   55.62    0.14    0.58    0.00    6.49   79.87    3.49    0.00    0.00     0.0     0.1    0.23    0.41    2.90    3.31    2.04    1.73    0.06    0.06    0.04    0.04    0.04    0.05    0.06    0.05    0.04    0.06    0.07    0.10    0.26    0.45    2.95    3.36    2.09    1.77
   15 141    65    40     1    48.5    47.1     1.3     0.0    7.33   55.79    0.14    0.58    0.00    6.75   80.93    3.49    0.00    0.01     0.0     0.0    0.15    0.34    2.71    3.31    2.05    1.74    0.07    0.07    0.04    0.03    0.04    0.05    0.06    0.05    0.04    0.07    0.08    0.08    0.18    0.37    2.75    3.37    2.09    1.78
   15 142    66    40     1    47.5    46.2     1.3     0.0    7.58   55.95    0.14    0.58    0.00    7.00   81.94    3.72    0.00    0.01     0.0     0.0    0.09    0.25    2.40    3.28    2.08    1.76    0.05    0.07    0.04    0.03    0.03    0.05    0.06    0.04    0.04    0.06    0.08    0.06    0.12    0.28    2.44    3.34    2.12    1.80
   15 143    67    40     1    46.7    45.5     1.2     0.0    7.80   56.10    0.14    0.58    0.00    7.23   82.94    3.72    0.00    0.00     0.0     0.0    0.06    0.18    2.21    3.28    2.08    1.76    0.03    0.05    0.03    0.03    0.03    0.04    0.06    0.04    0.04    0.03    0.06    0.05    0.09    0.20    2.26    3.34    2.13    1.80
   15 144    68    40     1    46.1    44.9     1.1     0.0    8.00   56.23    0.14    0.58    0.00    7.42   83.79    3.72    0.00    0.00     0.0     0.0    0.04    0.12    2.01    3.29    2.10    1.77    0.03    0.04    0.03    0.02    0.02    0.04    0.05    0.04    0.04    0.03    0.05    0.04    0.07    0.15    2.06    3.35    2.14    1.81
   15 145    69    40     1    45.2    44.1     1.1     0.0    8.19   56.34    0.14    0.58    0.00    7.61   84.55    4.00    0.00    0.00     0.0     0.0    0.03    0.08    1.76    3.22    2.12    1.78    0.02    0.04    0.02    0.02    0.02    0.04    0.05    0.04    0.04    0.02    0.04    0.03    0.05    0.10    1.80    3.27    2.16    1.82
   15 146    70    40     1    44.7    43.6     1.1     0.0    8.42   56.46    0.14    0.58    0.00    7.84   85.21    4.07    0.00    0.00     0.0     0.0    0.02    0.06    1.59    3.20    2.13    1.79    0.02    0.04    0.02    0.02    0.02    0.04    0.06    0.04    0.04    0.02    0.04    0.03    0.04    0.08    1.63    3.25    2.17    1.83
   15 147    71    40     1    44.3    43.2     1.1     0.0    8.66   56.59    0.14    0.58    0.00    8.09   85.83    4.07    0.00    0.00     0.0     0.0    0.01    0.04    1.44    3.20    2.13    1.79    0.03    0.04    0.02    0.02    0.02    0.04    0.06    0.04    0.04    0.03    0.04    0.02    0.04    0.06    1.48    3.26    2.17    1.83
   15 148    72    40     1    44.0    42.9     1.1     0.0    8.91   56.71    0.15    0.58    0.00    8.33   86.40    4.07    0.00    0.00     0.0     0.0    0.01    0.03    1.31    3.21    2.14    1.80    0.03    0.04    0.02    0.02    0.02    0.04    0.06    0.04    0.04    0.03    0.04    0.02    0.03    0.05    1.35    3.26    2.18    1.84
[...]
   15 168    92     0     0    41.1    39.2     1.9     0.0   17.99   39.01    0.07    0.55    0.00   17.44   55.54    7.07    0.00    0.02     0.0     0.0    0.04    0.08    0.49    1.72    2.27    2.03    0.12    0.15    0.07    0.07    0.06    0.06    0.06    0.06    0.05    0.14    0.19    0.10    0.10    0.14    0.55    1.78    2.33    2.09
   15 169    93     0     0    40.8    39.0     1.8     0.0   18.48   39.31    0.07    0.55    0.00   17.92   56.32    7.07    0.00    0.01     0.0     0.0    0.04    0.08    0.47    1.64    2.27    2.04    0.08    0.13    0.07    0.06    0.06    0.06    0.06    0.06    0.05    0.09    0.17    0.09    0.10    0.14    0.53    1.71    2.33    2.09
   15 170    94     0     0    39.9    38.1     1.8     0.0   18.90   39.57    0.07    0.55    0.00   18.35   56.97    7.78    0.00    0.01     0.0     0.0    0.03    0.07    0.40    1.44    2.24    2.06    0.11    0.13    0.06    0.06    0.06    0.06    0.06    0.06    0.05    0.12    0.17    0.09    0.09    0.13    0.46    1.50    2.30    2.11
   15 171    95     0     0    39.4    37.6     1.7     0.0   19.28   39.80    0.07    0.55    0.00   18.73   57.64    8.05    0.00    0.01     0.0     0.0    0.03    0.06    0.36    1.32    2.23    2.07    0.09    0.11    0.05    0.05    0.06    0.06    0.06    0.06    0.05    0.10    0.14    0.07    0.08    0.12    0.42    1.38    2.29    2.12
   15 172    96     0     0    39.0    37.4     1.6     0.0   19.64   40.02    0.07    0.55    0.00   19.09   58.30    8.08    0.00    0.01     0.0     0.0    0.03    0.05    0.34    1.24    2.24    2.08    0.06    0.10    0.05    0.05    0.05    0.06    0.06    0.06    0.05    0.07    0.12    0.06    0.08    0.11    0.39    1.30    2.29    2.13
   15 173    97     0     0    38.8    37.2     1.6     0.0   19.99   40.24    0.07    0.55    0.00   19.44   58.92    8.08    0.00    0.00     0.0     0.0    0.02    0.05    0.32    1.17    2.24    2.08    0.05    0.08    0.04    0.04    0.05    0.06    0.06    0.06    0.05    0.05    0.10    0.05    0.07    0.10    0.37    1.23    2.30    2.14
   15 174    98     0     0    38.6    37.0     1.5     0.0   20.34   40.45    0.07    0.55    0.00   19.79   59.44    8.08    0.00    0.01     0.0     0.0    0.02    0.05    0.30    1.11    2.25    2.09    0.08    0.09    0.04    0.04    0.05    0.05    0.06    0.05    0.05    0.08    0.10    0.05    0.06    0.09    0.35    1.17    2.30    2.14
   15 175    99     0     0    38.1    36.5     1.5     0.0   20.69   40.65    0.07    0.55    0.00   20.14   59.97    8.41    0.00    0.01     0.0     0.0    0.02    0.04    0.26    1.00    2.23    2.10    0.09    0.09    0.04    0.04    0.05    0.05    0.06    0.05    0.05    0.09    0.10    0.05    0.06    0.09    0.32    1.06    2.28    2.15
   15 176   100     0     0    37.9    36.4     1.5     0.0   21.06   40.85    0.07    0.55    0.00   20.50   60.51    8.43    0.00    0.01     0.0     0.0    0.02    0.04    0.25    0.94    2.23    2.11    0.07    0.08    0.04    0.04    0.05    0.05    0.05    0.05    0.05    0.07    0.10    0.05    0.06    0.09    0.30    0.99    2.28    2.16
   15 177   101     0     0    37.7    36.3     1.5     0.0   21.44   41.07    0.07    0.55    0.00   20.88   61.03    8.43    0.00    0.00     0.0     0.0    0.02    0.04    0.24    0.89    2.23    2.12    0.06    0.08    0.04    0.04    0.05    0.05    0.05    0.05    0.05    0.06    0.09    0.05    0.06    0.09    0.29    0.94    2.29    2.17
   15 178   102     0     0    37.7    36.2     1.5     0.0   21.84   41.29    0.07    0.55    0.00   21.28   61.51    8.43    0.00    0.01     0.0     0.0    0.02    0.04    0.22    0.83    2.24    2.13    0.07    0.08    0.04    0.04    0.05    0.05    0.05    0.05    0.05    0.08    0.10    0.05    0.06    0.08    0.27    0.88    2.29    2.17
   15 179   103     0     0    37.6    36.1     1.5     0.0   22.25   41.52    0.07    0.55    0.00   21.70   61.95    8.43    0.00    0.01     0.0     0.0    0.02    0.04    0.21    0.78    2.25    2.13    0.09    0.09    0.04    0.04    0.05    0.05    0.05    0.05    0.05    0.10    0.11    0.05    0.06    0.08    0.26    0.83    2.30    2.18
   15 180   104     0     0    37.6    36.1     1.6     0.0   22.69   41.77    0.07    0.55    0.00   22.14   62.38    8.43    0.00    0.02     0.0     0.0    0.02    0.04    0.19    0.72    2.26    2.14    0.10    0.10    0.05    0.05    0.05    0.05    0.05    0.05    0.05    0.13    0.12    0.06    0.07    0.08    0.24    0.78    2.31    2.19
   15 181   105     0     0    37.7    36.1     1.6     0.0   23.17   42.05    0.07    0.55    0.00   22.62   62.79    8.43    0.00    0.04     0.0     0.0    0.02    0.04    0.18    0.68    2.27    2.15    0.12    0.10    0.05    0.05    0.05    0.05    0.05    0.06    0.05    0.16    0.13    0.07    0.07    0.09    0.23    0.73    2.32    2.20
   15 182   106     0     0    37.8    36.1     1.7     0.0   23.69   42.36    0.07    0.55    0.00   23.14   63.19    8.43    0.00    0.06     0.0     0.0    0.03    0.04    0.17    0.64    2.28    2.16    0.13    0.12    0.06    0.05    0.05    0.05    0.06    0.06    0.05    0.19    0.15    0.08    0.08    0.09    0.23    0.69    2.33    2.21
   15 183   107     0     0    38.0    36.2     1.8     0.0   24.24   42.71    0.07    0.55    0.00   23.69   63.56    8.43    0.00    0.09     0.0     0.0    0.03    0.04    0.17    0.60    2.29    2.17    0.14    0.12    0.06    0.06    0.06    0.06    0.06    0.06    0.05    0.23    0.17    0.09    0.09    0.10    0.22    0.66    2.35    2.22
   15 184   108     0     0    38.2    36.4     1.8     0.0   24.80   43.09    0.07    0.55    0.00   24.25   63.92    8.43    0.00    0.12     0.1     0.0    0.04    0.05    0.16    0.57    2.30    2.18    0.14    0.13    0.07    0.06    0.06    0.06    0.06    0.06    0.05    0.26    0.19    0.10    0.10    0.11    0.22    0.62    2.36    2.24
   15 185   109     0     0    38.4    36.6     1.9     0.0   25.38   43.51    0.07    0.55    0.00   24.83   64.27    8.43    0.00    0.14     0.1     0.0    0.05    0.05    0.16    0.54    2.31    2.19    0.14    0.13    0.07    0.06    0.06    0.06    0.06    0.06    0.06    0.29    0.22    0.11    0.11    0.12    0.22    0.60    2.37    2.25
   15 186   110     0     0    38.7    36.8     1.9     0.0   25.99   43.98    0.07    0.55    0.00   25.43   64.59    8.43    0.00    0.17     0.1     0.1    0.05    0.06    0.16    0.51    2.33    2.21    0.14    0.13    0.07    0.07    0.07    0.06    0.06    0.06    0.06    0.32    0.24    0.12    0.12    0.13    0.22    0.57    2.39    2.26
   15 187   111     0     0    39.0    37.1     1.9     0.0   26.60   44.48    0.07    0.55    0.00   26.05   64.90    8.43    0.00    0.20     0.1     0.1    0.07    0.07    0.17    0.49    2.34    2.22    0.14    0.13    0.07    0.07    0.07    0.06    0.06    0.06    0.06    0.34    0.27    0.14    0.13    0.14    0.23    0.55    2.40    2.28
   15 188   112     0     0    39.3    37.4     1.9     0.0   27.22   45.00    0.07    0.55    0.00   26.67   65.20    8.43    0.00    0.23     0.2     0.1    0.08    0.08    0.17    0.47    2.36    2.24    0.14    0.13    0.07    0.07    0.07    0.06    0.06    0.06    0.06    0.37    0.29    0.15    0.15    0.15    0.23    0.53    2.42    2.29
   15 189   113     0     0    39.7    37.7     2.0     0.0   27.87   45.55    0.07    0.55    0.00   27.32   65.52    8.43    0.00    0.22     0.2     0.1    0.09    0.09    0.17    0.46    2.37    2.25    0.15    0.12    0.07    0.07    0.07    0.06    0.06    0.06    0.06    0.38    0.33    0.16    0.16    0.16    0.24    0.52    2.44    2.31
   15 190   114     0     0    39.8    37.9     1.9     0.0   28.51   46.05    0.07    0.55    0.00   27.96   66.01    8.43    0.00    0.05     0.2     0.1    0.10    0.10    0.18    0.44    2.39    2.26    0.13    0.12    0.07    0.07    0.07    0.06    0.06    0.06    0.06    0.18    0.34    0.17    0.17    0.17    0.24    0.50    2.45    2.32
   15 191   115     0     0    40.0    38.1     1.9     0.0   29.07   46.50    0.07    0.55    0.00   28.52   66.36    8.43    0.00    0.04     0.2     0.1    0.11    0.11    0.18    0.42    2.40    2.28    0.13    0.12    0.07    0.06    0.07    0.06    0.06    0.06    0.06    0.17    0.36    0.18    0.17    0.18    0.24    0.49    2.46    2.33
   15 192   116     0     0    40.2    38.3     1.9     0.0   29.55   46.90    0.07    0.55    0.00   29.00   66.68    8.43    0.00    0.05     0.2     0.1    0.12    0.11    0.18    0.41    2.41    2.29    0.13    0.12    0.07    0.06    0.07    0.06    0.06    0.06    0.06    0.18    0.37    0.18    0.18    0.18    0.24    0.47    2.47    2.35
   15 193   117     0     0    40.3    38.4     1.9     0.0   29.99   47.28    0.07    0.55    0.00   29.44   66.96    8.43    0.00    0.07     0.3     0.1    0.12    0.12    0.18    0.39    2.42    2.30    0.14    0.11    0.07    0.06    0.07    0.06    0.06    0.06    0.06    0.21    0.37    0.19    0.18    0.18    0.24    0.46    2.49    2.36
   15 194   118     0     0    40.5    38.6     1.9     0.0   30.39   47.64    0.07    0.55    0.00   29.84   67.21    8.43    0.00    0.09     0.3     0.1    0.13    0.12    0.18    0.38    2.43    2.31    0.15    0.11    0.07    0.06    0.06    0.06    0.06    0.06    0.06    0.24    0.38    0.19    0.19    0.19    0.24    0.44    2.49    2.37
   15 195   119     0     0    40.7    38.8     1.9     0.0   30.80   48.00    0.07    0.55    0.00   30.24   67.45    8.43    0.00    0.12     0.3     0.1    0.13    0.13    0.18    0.37    2.44    2.32    0.15    0.11    0.07    0.06    0.06    0.06    0.06    0.06    0.06    0.27    0.39    0.19    0.19    0.19    0.24    0.43    2.50    2.38
   15 196   120     0     0    40.9    39.0     1.9     0.0   31.23   48.39    0.07    0.55    0.00   30.68   67.68    8.43    0.00    0.15     0.3     0.1    0.14    0.13    0.18    0.36    2.46    2.33    0.16    0.10    0.06    0.06    0.06    0.06    0.06    0.06    0.06    0.31    0.40    0.20    0.19    0.19    0.24    0.42    2.52    2.39
   15 197   121     0     0    41.1    39.2     1.9     0.0   31.70   48.81    0.07    0.55    0.00   31.15   67.90    8.43    0.00    0.19     0.3     0.1    0.14    0.14    0.18    0.35    2.47    2.34    0.16    0.10    0.06    0.06    0.06    0.06    0.06    0.06    0.06    0.35    0.41    0.21    0.20    0.20    0.24    0.41    2.53    2.40
   15 198   122     0     0    41.4    39.5     1.9     0.0   32.18   49.25    0.07    0.55    0.00   31.63   68.11    8.43    0.00    0.22     0.3     0.2    0.15    0.15    0.18    0.34    2.48    2.36    0.16    0.10    0.06    0.06    0.06    0.06    0.06    0.06    0.06    0.39    0.43    0.22    0.21    0.21    0.24    0.40    2.54    2.41
   15 199   123     0     0    41.7    39.8     1.9     0.0   32.68   49.71    0.07    0.55    0.00   32.13   68.30    8.43    0.00    0.26     0.3     0.2    0.16    0.15    0.19    0.33    2.49    2.37    0.16    0.09    0.06    0.06    0.06    0.06    0.06    0.06    0.06    0.42    0.44    0.22    0.22    0.22    0.25    0.40    2.55    2.43
   15 200   124     0     0    42.0    40.1     1.9     0.0   33.19   50.18    0.07    0.55    0.00   32.63   68.49    8.43    0.00    0.30     0.4     0.2    0.17    0.16    0.19    0.33    2.51    2.38    0.16    0.09    0.06    0.06    0.06    0.06    0.06    0.06    0.06    0.46    0.46    0.24    0.23    0.22    0.26    0.39    2.57    2.44
   15 201   125     0     0    42.3    40.5     1.8     0.0   33.69   50.67    0.07    0.55    0.00   33.14   68.67    8.43    0.00    0.34     0.4     0.2    0.18    0.17    0.20    0.33    2.52    2.40    0.16    0.08    0.06    0.05    0.06    0.06    0.06    0.06    0.06    0.49    0.47    0.25    0.24    0.23    0.26    0.39    2.58    2.46
   15 202   126     0     0    42.7    40.8     1.8     0.0   34.20   51.16    0.07    0.55    0.00   33.65   68.84    8.43    0.00    0.37     0.4     0.2    0.19    0.19    0.20    0.33    2.53    2.41    0.15    0.08    0.06    0.05    0.06    0.06    0.06    0.06    0.06    0.52    0.49    0.26    0.25    0.24    0.27    0.39    2.59    2.47
   15 203   127     0     0    43.0    41.2     1.8     0.0   34.71   51.65    0.07    0.55    0.00   34.16   69.01    8.43    0.00    0.40     0.4     0.2    0.20    0.20    0.21    0.33    2.55    2.42    0.15    0.08    0.06    0.05    0.06    0.06    0.06    0.06    0.06    0.55    0.50    0.27    0.26    0.25    0.27    0.39    2.61    2.48
   15 204   128     0     0    43.3    41.5     1.8     0.0   35.22   52.15    0.07    0.55    0.00   34.67   69.17    8.43    0.00    0.43     0.4     0.2    0.22    0.21    0.22    0.33    2.56    2.44    0.14    0.07    0.06    0.05    0.06    0.06    0.07    0.06    0.06    0.58    0.52    0.28    0.27    0.26    0.28    0.39    2.62    2.50
   15 205   129     0     0    43.7    41.9     1.8     0.0   35.72   52.63    0.07    0.55    0.00   35.17   69.33    8.43    0.00    0.47     0.5     0.2    0.23    0.22    0.23    0.33    2.58    2.45    0.14    0.07    0.05    0.05    0.05    0.06    0.06    0.06    0.06    0.61    0.53    0.29    0.28    0.27    0.29    0.40    2.64    2.51
   15 206   130     0     0    44.0    42.3     1.8     0.0   36.21   53.11    0.07    0.55    0.00   35.66   69.48    8.43    0.00    0.50     0.5     0.2    0.24    0.23    0.23    0.33    2.59    2.47    0.14    0.07    0.05    0.05    0.05    0.06    0.06    0.06    0.06    0.64    0.54    0.30    0.29    0.28    0.29    0.40    2.65    2.53
   15 207   131     0     0    44.3    42.6     1.8     0.0   36.67   53.57    0.07    0.55    0.00   36.12   69.63    8.43    0.00    0.53     0.5     0.3    0.25    0.24    0.24    0.33    2.60    2.48    0.14    0.06    0.05    0.05    0.05    0.06    0.06    0.06    0.06    0.67    0.56    0.31    0.30    0.29    0.30    0.40    2.66    2.54
   15 208   132     0     0    44.6    42.9     1.7     0.0   37.09   53.98    0.07    0.55    0.00   36.54   69.78    8.43    0.00    0.56     0.5     0.3    0.26    0.25    0.24    0.33    2.62    2.50    0.13    0.06    0.05    0.05    0.05    0.06    0.06    0.06    0.06    0.69    0.57    0.32    0.30    0.30    0.30    0.40    2.68    2.55
   15 209   133     0     0    44.9    43.1     1.7     0.0   37.49   54.36    0.07    0.55    0.00   36.94   69.93    8.43    0.00    0.58     0.5     0.3    0.26    0.26    0.25    0.33    2.63    2.51    0.14    0.06    0.05    0.05    0.05    0.06    0.06    0.06    0.06    0.73    0.57    0.33    0.31    0.31    0.31    0.39    2.69    2.57
   15 210   134     0     0    45.1    43.3     1.7     0.0   37.87   54.73    0.07    0.55    0.00   37.32   70.09    8.43    0.00    0.59     0.5     0.3    0.27    0.26    0.25    0.33    2.64    2.52    0.15    0.06    0.05    0.05    0.05    0.06    0.06    0.06    0.06    0.74    0.58    0.33    0.32    0.31    0.31    0.39    2.70    2.58
   15 211   135     0     0    45.2    43.5     1.7     0.0   38.21   55.06    0.07    0.55    0.00   37.66   70.26    8.43    0.00    0.59     0.5     0.3    0.28    0.27    0.25    0.33    2.65    2.53    0.15    0.06    0.05    0.04    0.05    0.06    0.06    0.06    0.06    0.74    0.59    0.34    0.32    0.32    0.31    0.39    2.71    2.59
   15 212   136     0     0    45.4    43.7     1.7     0.0   38.53   55.38    0.07    0.55    0.00   37.98   70.41    8.43    0.00    0.60     0.5     0.3    0.28    0.27    0.25    0.32    2.65    2.54    0.16    0.06    0.05    0.04    0.05    0.06    0.06    0.06    0.06    0.76    0.59    0.34    0.33    0.32    0.31    0.38    2.71    2.60
   15 213   137     0     0    45.6    43.9     1.7     0.0   38.85   55.69    0.07    0.55    0.00   38.30   70.55    8.43    0.00    0.63     0.5     0.3    0.29    0.28    0.25    0.32    2.66    2.55    0.16    0.06    0.05    0.04    0.05    0.06    0.06    0.06    0.06    0.79    0.60    0.35    0.33    0.32    0.31    0.38    2.72    2.61
   15 214   138     0     0    45.8    44.1     1.7     0.0   39.16   56.00    0.07    0.55    0.00   38.61   70.68    8.43    0.00    0.66     0.5     0.3    0.29    0.28    0.25    0.32    2.67    2.56    0.16    0.06    0.05    0.04    0.05    0.06    0.06    0.06    0.06    0.82    0.60    0.35    0.33    0.33    0.31    0.38    2.73    2.62
   15 215   139     0     0    45.9    44.3     1.7     0.0   39.47   56.31    0.07    0.55    0.00   38.92   70.81    8.43    0.00    0.69     0.5     0.3    0.30    0.29    0.25    0.32    2.68    2.57    0.16    0.06    0.05    0.04    0.05    0.05    0.06    0.06    0.06    0.85    0.60    0.36    0.34    0.33    0.31    0.37    2.74    2.63
   15 216   140     0     0    46.2    44.5     1.6     0.0   39.81   56.63    0.07    0.55    0.00   39.26   70.94    8.43    0.00    0.72     0.6     0.3    0.30    0.29    0.26    0.32    2.69    2.58    0.16    0.05    0.05    0.04    0.05    0.05    0.06    0.06    0.06    0.88    0.61    0.37    0.34    0.34    0.31    0.37    2.75    2.64
   15 217   141     0     0    46.4    44.8     1.6     0.0   40.18   56.98    0.07    0.55    0.00   39.62   71.06    8.43    0.00    0.75     0.6     0.3    0.31    0.30    0.26    0.32    2.70    2.59    0.16    0.05    0.05    0.04    0.05    0.05    0.06    0.06    0.06    0.91    0.62    0.37    0.35    0.35    0.31    0.37    2.76    2.65
   15 218   142     0     0    46.7    45.0     1.6     0.0   40.56   57.35    0.07    0.55    0.00   40.01   71.18    8.43    0.00    0.78     0.6     0.3    0.32    0.31    0.26    0.32    2.71    2.61    0.16    0.05    0.05    0.04    0.05    0.05    0.06    0.06    0.06    0.94    0.62    0.38    0.36    0.35    0.32    0.38    2.77    2.66
   15 219   143     0     0    47.0    45.3     1.6     0.0   40.97   57.75    0.07    0.55    0.00   40.42   71.30    8.43    0.00    0.82     0.6     0.3    0.33    0.32    0.27    0.32    2.72    2.62    0.15    0.05    0.05    0.04    0.04    0.06    0.06    0.06    0.06    0.97    0.63    0.39    0.37    0.36    0.32    0.38    2.78    2.68
   15 220   144     0     0    47.3    45.6     1.6     0.0   41.41   58.17    0.07    0.55    0.00   40.86   71.41    8.43    0.00    0.85     0.6     0.4    0.34    0.32    0.27    0.32    2.73    2.63    0.15    0.05    0.04    0.04    0.04    0.06    0.06    0.06    0.06    1.00    0.64    0.40    0.38    0.37    0.33    0.38    2.79    2.69
   15 221   145     0     0    47.6    46.0     1.6     0.0   41.88   58.63    0.07    0.55    0.00   41.32   71.53    8.43    0.00    0.89     0.6     0.4    0.35    0.33    0.28    0.33    2.74    2.65    0.15    0.05    0.04    0.04    0.04    0.06    0.06    0.06    0.06    1.04    0.64    0.41    0.38    0.38    0.34    0.39    2.80    2.71
   15 222   146     0     0    48.0    46.3     1.6     0.0   42.35   59.09    0.07    0.55    0.00   41.80   71.65    8.43    0.00    0.93     0.6     0.4    0.36    0.35    0.29    0.33    2.76    2.66    0.14    0.04    0.04    0.04    0.04    0.06    0.06    0.06    0.06    1.07    0.65    0.42    0.39    0.39    0.35    0.39    2.82    2.72
   15 223   147     0     0    48.3    46.7     1.6     0.0   42.84   59.57    0.07    0.55    0.00   42.28   71.76    8.43    0.00    0.96     0.6     0.4    0.37    0.36    0.30    0.34    2.77    2.68    0.14    0.04    0.04    0.04    0.04    0.06    0.06    0.06    0.06    1.10    0.66    0.43    0.40    0.40    0.35    0.40    2.83    2.74
   15 224   148     0     0    48.8    47.2     1.6     0.0   43.32   60.05    0.07    0.55    0.00   42.77   71.76    8.43    0.00    1.00     0.6     0.4    0.38    0.37    0.32    0.36    2.79    2.69    0.13    0.04    0.04    0.04    0.04    0.06    0.06    0.06    0.06    1.13    0.67    0.45    0.42    0.41    0.37    0.42    2.85    2.75
