*SOIL INORGANIC N BALANCE

*DSSAT Cropping System Model Ver. 4.8.5.000 -release  OCT 27, 2025 22:35:44

*RUN   1        : 1                         WHAPS048 TUDU1501    1
 MODEL          : WHAPS048 - Wheat
 EXPERIMENT     : TUDU1501 WH
 DATA PATH      :
 TREATMENT  1   : 1                         WHAPS048
  


!SOIL INORGANIC N BALANCE                         Initial               Final
!                                                Year/Doy            Year/Doy
!                                                  15/077              15/224
!                                               (kg[N]/ha)          (kg[N]/ha)
! Soil N state variables:
!   Soil NO3                                        57.67               57.14
!   Soil NH4                                        28.83                1.28
!   Soil Urea                                        0.00                0.00
!   Soil N gases                                     0.00                0.03
!   Unreleased fert N                                                    0.00

! N additions:
!   Fertilizer N                                   120.00
!   Mineralized N                                   39.39

! N subtractions:
!   N immobilized                                                        0.58
!   N leached                                                            4.89
!   N loss to tile drainage                                              0.00
!   N Uptake From Soil                                                 160.23
!   NH3 loss                                                            21.11
!   N2O loss                                                             0.13
!   N2 loss                                                              0.11
!   NO loss                                                              0.41

!   Total N balance                                245.90              245.90
!   Balance                                                            -0.000

!===============================================================================

*DSSAT Cropping System Model Ver. 4.8.5.000 -release  OCT 27, 2025 22:35:44

*RUN   2        : 2                         WHAPS048 TUDU1501    2
 MODEL          : WHAPS048 - Wheat
 EXPERIMENT     : TUDU1501 WH
 DATA PATH      :
 TREATMENT  2   : 2                         WHAPS048
  


!SOIL INORGANIC N BALANCE                         Initial               Final
!                                                Year/Doy            Year/Doy
!                                                  15/077              15/224
!                                               (kg[N]/ha)          (kg[N]/ha)
! Soil N state variables:
!   Soil NO3                                        57.67               73.64
!   Soil NH4                                        28.83                1.34
!   Soil Urea                                        0.00                0.00
!   Soil N gases                                     0.00                0.03
!   Unreleased fert N                                                    0.00

! N additions:
!   Fertilizer N                                   120.00
!   Mineralized N                                   39.34

! N subtractions:
!   N immobilized                                                        0.58
!   N leached                                                            4.79
!   N loss to tile drainage                                              0.00
!   N Uptake From Soil                                                 164.82
!   NH3 loss                                                             0.00
!   N2O loss                                                             0.12
!   N2 loss                                                              0.13
!   NO loss                                                              0.40

!   Total N balance                                245.84              245.84
!   Balance                                                             0.000

!===============================================================================

*DSSAT Cropping System Model Ver. 4.8.5.000 -release  OCT 27, 2025 22:35:44

*RUN   3        : 3                         WHAPS048 TUDU1501    3
 MODEL          : WHAPS048 - Wheat
 EXPERIMENT     : TUDU1501 WH
 DATA PATH      :
 TREATMENT  3   : 3                         WHAPS048
  


!SOIL INORGANIC N BALANCE                         Initial               Final
!                                                Year/Doy            Year/Doy
!                                                  15/077              15/224
!                                               (kg[N]/ha)          (kg[N]/ha)
! Soil N state variables:
!   Soil NO3                                        57.67               71.64
!   Soil NH4                                        28.83                1.50
!   Soil Urea                                        0.00                0.00
!   Soil N gases                                     0.00                0.03
!   Unreleased fert N                                                    0.00

! N additions:
!   Fertilizer N                                    40.00
!   Mineralized N                                   42.79

! N subtractions:
!   N immobilized                                                        0.55
!   N leached                                                            8.43
!   N loss to tile drainage                                              0.00
!   N Uptake From Soil                                                  86.04
!   NH3 loss                                                             0.79
!   N2O loss                                                             0.07
!   N2 loss                                                              0.06
!   NO loss                                                              0.19

!   Total N balance                                169.30              169.30
!   Balance                                                             0.000

!===============================================================================

*DSSAT Cropping System Model Ver. 4.8.5.000 -release  OCT 27, 2025 22:35:44

*RUN   4        : 4                         WHAPS048 TUDU1501    4
 MODEL          : WHAPS048 - Wheat
 EXPERIMENT     : TUDU1501 WH
 DATA PATH      :
 TREATMENT  4   : 4                         WHAPS048
  


!SOIL INORGANIC N BALANCE                         Initial               Final
!                                                Year/Doy            Year/Doy
!                                                  15/077              15/224
!                                               (kg[N]/ha)          (kg[N]/ha)
! Soil N state variables:
!   Soil NO3                                        57.67               73.24
!   Soil NH4                                        28.83                1.28
!   Soil Urea                                        0.00                0.00
!   Soil N gases                                     0.00                0.03
!   Unreleased fert N                                                    0.00

! N additions:
!   Fertilizer N                                   120.00
!   Mineralized N                                   39.35

! N subtractions:
!   N immobilized                                                        0.58
!   N leached                                                            4.83
!   N loss to tile drainage                                              0.00
!   N Uptake From Soil                                                 163.83
!   NH3 loss                                                             1.56
!   N2O loss                                                             0.10
!   N2 loss                                                              0.13
!   NO loss                                                              0.29

!   Total N balance                                245.86              245.86
!   Balance                                                             0.000

!===============================================================================

*DSSAT Cropping System Model Ver. 4.8.5.000 -release  OCT 27, 2025 22:35:44

*RUN   5        : 5                         WHAPS048 TUDU1501    5
 MODEL          : WHAPS048 - Wheat
 EXPERIMENT     : TUDU1501 WH
 DATA PATH      :
 TREATMENT  5   : 5                         WHAPS048
  


!SOIL INORGANIC N BALANCE                         Initial               Final
!                                                Year/Doy            Year/Doy
!                                                  15/077              15/224
!                                               (kg[N]/ha)          (kg[N]/ha)
! Soil N state variables:
!   Soil NO3                                        57.67               46.85
!   Soil NH4                                        28.83                1.31
!   Soil Urea                                        0.00                0.00
!   Soil N gases                                     0.00                0.03
!   Unreleased fert N                                                    0.00

! N additions:
!   Fertilizer N                                   120.00
!   Mineralized N                                   39.03

! N subtractions:
!   N immobilized                                                        0.58
!   N leached                                                            4.09
!   N loss to tile drainage                                              0.00
!   N Uptake From Soil                                                 190.80
!   NH3 loss                                                             1.04
!   N2O loss                                                             0.17
!   N2 loss                                                              0.23
!   NO loss                                                              0.45

!   Total N balance                                245.54              245.54
!   Balance                                                            -0.000

!===============================================================================

*DSSAT Cropping System Model Ver. 4.8.5.000 -release  OCT 27, 2025 22:35:45

*RUN   6        : 6                         WHAPS048 TUDU1501    6
 MODEL          : WHAPS048 - Wheat
 EXPERIMENT     : TUDU1501 WH
 DATA PATH      :
 TREATMENT  6   : 6                         WHAPS048
  


!SOIL INORGANIC N BALANCE                         Initial               Final
!                                                Year/Doy            Year/Doy
!                                                  15/077              15/224
!                                               (kg[N]/ha)          (kg[N]/ha)
! Soil N state variables:
!   Soil NO3                                        57.67               69.25
!   Soil NH4                                        28.83                1.28
!   Soil Urea                                        0.00                0.00
!   Soil N gases                                     0.00                0.03
!   Unreleased fert N                                                    0.00

! N additions:
!   Fertilizer N                                   120.00
!   Mineralized N                                   39.40

! N subtractions:
!   N immobilized                                                        0.58
!   N leached                                                            4.89
!   N loss to tile drainage                                              0.00
!   N Uptake From Soil                                                 160.99
!   NH3 loss                                                             8.31
!   N2O loss                                                             0.11
!   N2 loss                                                              0.12
!   NO loss                                                              0.35

!   Total N balance                                245.90              245.90
!   Balance                                                             0.000

!===============================================================================

*DSSAT Cropping System Model Ver. 4.8.5.000 -release  OCT 27, 2025 22:35:45

*RUN   7        : 7                         WHAPS048 TUDU1501    7
 MODEL          : WHAPS048 - Wheat
 EXPERIMENT     : TUDU1501 WH
 DATA PATH      :
 TREATMENT  7   : 7                         WHAPS048
  


!SOIL INORGANIC N BALANCE                         Initial               Final
!                                                Year/Doy            Year/Doy
!                                                  15/077              15/224
!                                               (kg[N]/ha)          (kg[N]/ha)
! Soil N state variables:
!   Soil NO3                                        57.67               55.26
!   Soil NH4                                        28.83                1.27
!   Soil Urea                                        0.00                0.00
!   Soil N gases                                     0.00                0.03
!   Unreleased fert N                                                    0.00

! N additions:
!   Fertilizer N                                   120.00
!   Mineralized N                                   39.05

! N subtractions:
!   N immobilized                                                        0.58
!   N leached                                                            4.18
!   N loss to tile drainage                                              0.00
!   N Uptake From Soil                                                 182.16
!   NH3 loss                                                             1.46
!   N2O loss                                                             0.12
!   N2 loss                                                              0.22
!   NO loss                                                              0.29

!   Total N balance                                245.55              245.55
!   Balance                                                            -0.000

!===============================================================================

*DSSAT Cropping System Model Ver. 4.8.5.000 -release  OCT 27, 2025 22:35:45

*RUN   8        : 8                         WHAPS048 TUDU1501    8
 MODEL          : WHAPS048 - Wheat
 EXPERIMENT     : TUDU1501 WH
 DATA PATH      :
 TREATMENT  8   : 8                         WHAPS048
  


!SOIL INORGANIC N BALANCE                         Initial               Final
!                                                Year/Doy            Year/Doy
!                                                  15/077              15/224
!                                               (kg[N]/ha)          (kg[N]/ha)
! Soil N state variables:
!   Soil NO3                                        57.67               68.18
!   Soil NH4                                        28.83                1.27
!   Soil Urea                                        0.00                0.00
!   Soil N gases                                     0.00                0.03
!   Unreleased fert N                                                    0.00

! N additions:
!   Fertilizer N                                   180.00
!   Mineralized N                                   38.85

! N subtractions:
!   N immobilized                                                        0.58
!   N leached                                                            3.84
!   N loss to tile drainage                                              0.00
!   N Uptake From Soil                                                 206.91
!   NH3 loss                                                            23.39
!   N2O loss                                                             0.23
!   N2 loss                                                              0.29
!   NO loss                                                              0.65

!   Total N balance                                305.36              305.36
!   Balance                                                             0.000

!===============================================================================

*DSSAT Cropping System Model Ver. 4.8.5.000 -release  OCT 27, 2025 22:35:45

*RUN   9        : 9                         WHAPS048 TUDU1501    9
 MODEL          : WHAPS048 - Wheat
 EXPERIMENT     : TUDU1501 WH
 DATA PATH      :
 TREATMENT  9   : 9                         WHAPS048
  


!SOIL INORGANIC N BALANCE                         Initial               Final
!                                                Year/Doy            Year/Doy
!                                                  15/077              15/224
!                                               (kg[N]/ha)          (kg[N]/ha)
! Soil N state variables:
!   Soil NO3                                        57.67               81.97
!   Soil NH4                                        28.83                1.32
!   Soil Urea                                        0.00                0.00
!   Soil N gases                                     0.00                0.03
!   Unreleased fert N                                                    0.00

! N additions:
!   Fertilizer N                                   180.00
!   Mineralized N                                   38.58

! N subtractions:
!   N immobilized                                                        0.58
!   N leached                                                            3.81
!   N loss to tile drainage                                              0.00
!   N Uptake From Soil                                                 216.21
!   NH3 loss                                                             0.00
!   N2O loss                                                             0.23
!   N2 loss                                                              0.33
!   NO loss                                                              0.61

!   Total N balance                                305.08              305.08
!   Balance                                                            -0.000

!===============================================================================

*DSSAT Cropping System Model Ver. 4.8.5.000 -release  OCT 27, 2025 22:35:45

*RUN  10        : 10                        WHAPS048 TUDU1501   10
 MODEL          : WHAPS048 - Wheat
 EXPERIMENT     : TUDU1501 WH
 DATA PATH      :
 TREATMENT 10   : 10                        WHAPS048
  


!SOIL INORGANIC N BALANCE                         Initial               Final
!                                                Year/Doy            Year/Doy
!                                                  15/077              15/224
!                                               (kg[N]/ha)          (kg[N]/ha)
! Soil N state variables:
!   Soil NO3                                        57.67               91.28
!   Soil NH4                                        28.83                1.50
!   Soil Urea                                        0.00                0.00
!   Soil N gases                                     0.00                0.03
!   Unreleased fert N                                                    0.00

! N additions:
!   Fertilizer N                                    60.00
!   Mineralized N                                   42.79

! N subtractions:
!   N immobilized                                                        0.55
!   N leached                                                            8.43
!   N loss to tile drainage                                              0.00
!   N Uptake From Soil                                                  86.29
!   NH3 loss                                                             0.84
!   N2O loss                                                             0.08
!   N2 loss                                                              0.06
!   NO loss                                                              0.24

!   Total N balance                                189.30              189.30
!   Balance                                                            -0.000

!===============================================================================

*DSSAT Cropping System Model Ver. 4.8.5.000 -release  OCT 27, 2025 22:35:45

*RUN  11        : 11                        WHAPS048 TUDU1501   11
 MODEL          : WHAPS048 - Wheat
 EXPERIMENT     : TUDU1501 WH
 DATA PATH      :
 TREATMENT 11   : 11                        WHAPS048
  


!SOIL INORGANIC N BALANCE                         Initial               Final
!                                                Year/Doy            Year/Doy
!                                                  15/077              15/224
!                                               (kg[N]/ha)          (kg[N]/ha)
! Soil N state variables:
!   Soil NO3                                        57.67               81.45
!   Soil NH4                                        28.83                1.26
!   Soil Urea                                        0.00                0.00
!   Soil N gases                                     0.00                0.03
!   Unreleased fert N                                                    0.00

! N additions:
!   Fertilizer N                                   180.00
!   Mineralized N                                   38.61

! N subtractions:
!   N immobilized                                                        0.58
!   N leached                                                            3.81
!   N loss to tile drainage                                              0.00
!   N Uptake From Soil                                                 215.49
!   NH3 loss                                                             1.56
!   N2O loss                                                             0.19
!   N2 loss                                                              0.32
!   NO loss                                                              0.44

!   Total N balance                                305.12              305.12
!   Balance                                                            -0.000

!===============================================================================

*DSSAT Cropping System Model Ver. 4.8.5.000 -release  OCT 27, 2025 22:35:45

*RUN  12        : 12                        WHAPS048 TUDU1501   12
 MODEL          : WHAPS048 - Wheat
 EXPERIMENT     : TUDU1501 WH
 DATA PATH      :
 TREATMENT 12   : 12                        WHAPS048
  


!SOIL INORGANIC N BALANCE                         Initial               Final
!                                                Year/Doy            Year/Doy
!                                                  15/077              15/224
!                                               (kg[N]/ha)          (kg[N]/ha)
! Soil N state variables:
!   Soil NO3                                        57.67               81.29
!   Soil NH4                                        28.83                1.26
!   Soil Urea                                        0.00                0.00
!   Soil N gases                                     0.00                0.03
!   Unreleased fert N                                                    0.00

! N additions:
!   Fertilizer N                                   180.00
!   Mineralized N                                   38.61

! N subtractions:
!   N immobilized                                                        0.58
!   N leached                                                            3.81
!   N loss to tile drainage                                              0.00
!   N Uptake From Soil                                                 215.20
!   NH3 loss                                                             1.72
!   N2O loss                                                             0.25
!   N2 loss                                                              0.33
!   NO loss                                                              0.66

!   Total N balance                                305.11              305.11
!   Balance                                                             0.000

!===============================================================================

*DSSAT Cropping System Model Ver. 4.8.5.000 -release  OCT 27, 2025 22:35:45

*RUN  13        : 13                        WHAPS048 TUDU1501   13
 MODEL          : WHAPS048 - Wheat
 EXPERIMENT     : TUDU1501 WH
 DATA PATH      :
 TREATMENT 13   : 13                        WHAPS048
  


!SOIL INORGANIC N BALANCE                         Initial               Final
!                                                Year/Doy            Year/Doy
!                                                  15/077              15/224
!                                               (kg[N]/ha)          (kg[N]/ha)
! Soil N state variables:
!   Soil NO3                                        57.67               77.89
!   Soil NH4                                        28.83                1.27
!   Soil Urea                                        0.00                0.00
!   Soil N gases                                     0.00                0.03
!   Unreleased fert N                                                    0.00

! N additions:
!   Fertilizer N                                   180.00
!   Mineralized N                                   38.88

! N subtractions:
!   N immobilized                                                        0.58
!   N leached                                                            3.84
!   N loss to tile drainage                                              0.00
!   N Uptake From Soil                                                 205.89
!   NH3 loss                                                            14.92
!   N2O loss                                                             0.19
!   N2 loss                                                              0.28
!   NO loss                                                              0.51

!   Total N balance                                305.38              305.38
!   Balance                                                            -0.000

!===============================================================================

*DSSAT Cropping System Model Ver. 4.8.5.000 -release  OCT 27, 2025 22:35:45

*RUN  14        : 14                        WHAPS048 TUDU1501   14
 MODEL          : WHAPS048 - Wheat
 EXPERIMENT     : TUDU1501 WH
 DATA PATH      :
 TREATMENT 14   : 14                        WHAPS048
  


!SOIL INORGANIC N BALANCE                         Initial               Final
!                                                Year/Doy            Year/Doy
!                                                  15/077              15/224
!                                               (kg[N]/ha)          (kg[N]/ha)
! Soil N state variables:
!   Soil NO3                                        57.67               86.44
!   Soil NH4                                        28.83                1.28
!   Soil Urea                                        0.00                0.00
!   Soil N gases                                     0.00                0.03
!   Unreleased fert N                                                    0.00

! N additions:
!   Fertilizer N                                   180.00
!   Mineralized N                                   39.06

! N subtractions:
!   N immobilized                                                        0.58
!   N leached                                                            4.09
!   N loss to tile drainage                                              0.00
!   N Uptake From Soil                                                 210.73
!   NH3 loss                                                             1.64
!   N2O loss                                                             0.15
!   N2 loss                                                              0.22
!   NO loss                                                              0.41

!   Total N balance                                305.56              305.56
!   Balance                                                            -0.000

!===============================================================================

*DSSAT Cropping System Model Ver. 4.8.5.000 -release  OCT 27, 2025 22:35:46

*RUN  15        : 15                        WHAPS048 TUDU1501   15
 MODEL          : WHAPS048 - Wheat
 EXPERIMENT     : TUDU1501 WH
 DATA PATH      :
 TREATMENT 15   : 15                        WHAPS048
  


!SOIL INORGANIC N BALANCE                         Initial               Final
!                                                Year/Doy            Year/Doy
!                                                  15/077              15/224
!                                               (kg[N]/ha)          (kg[N]/ha)
! Soil N state variables:
!   Soil NO3                                        57.67               47.19
!   Soil NH4                                        28.83                1.64
!   Soil Urea                                        0.00                0.00
!   Soil N gases                                     0.00                0.03
!   Unreleased fert N                                                    0.00

! N additions:
!   Fertilizer N                                     0.00
!   Mineralized N                                   43.32

! N subtractions:
!   N immobilized                                                        0.55
!   N leached                                                            8.43
!   N loss to tile drainage                                              0.00
!   N Uptake From Soil                                                  71.76
!   NH3 loss                                                             0.00
!   N2O loss                                                             0.05
!   N2 loss                                                              0.06
!   NO loss                                                              0.10

!   Total N balance                                129.82              129.82
!   Balance                                                             0.000
