*WARNING DETAIL FILE

******************************************************************************

*DSSAT Cropping System Model Ver. 4.8.5.000 -release  OCT 27, 2025 22:35:44

*RUN   1        : 1                         WHAPS048 TUDU1501    1
 MODEL          : WHAPS048 - Wheat
 EXPERIMENT     : TUDU1501 WH
 DATA PATH      :
 TREATMENT  1   : 1                         WHAPS048
  

 TILLAGE  YEAR DOY =   15  77
 User-specified tillage depth greater than that specified by tillage implement.
 Tillage operation date:   15  77                                              
 TI019: Fertilizer applicator, anhydr                                          
 User-specified depth = 10.0 cm                                                
 Implement depth of      5.0 cm will be used.                                  

 SOLORG  YEAR DOY =   15  77
 The initialized C:N ratio of the soil organic                                 
 matter (humus) in layer   8 is unlikely:      8.8                             
 A C:N ratio of 10.0 will be used to calculate initial soil organic N.         
 Please check your SOIL.SOL file.                                              

 SOLORG  YEAR DOY =   15  77
 The initialized C:N ratio of the soil organic                                 
 matter (humus) in layer   9 is unlikely:      8.8                             
 A C:N ratio of 10.0 will be used to calculate initial soil organic N.         
 Please check your SOIL.SOL file.                                              

 NWGRNI  YEAR DOY =   15 205
 pnout bound check >navl error                                                 

 NWGRNI  YEAR DOY =   15 209
 pnout bound check >navl error                                                 

 NWGRNI  YEAR DOY =   15 210
 pnout bound check >navl error                                                 

******************************************************************************

*DSSAT Cropping System Model Ver. 4.8.5.000 -release  OCT 27, 2025 22:35:44

*RUN   2        : 2                         WHAPS048 TUDU1501    2
 MODEL          : WHAPS048 - Wheat
 EXPERIMENT     : TUDU1501 WH
 DATA PATH      :
 TREATMENT  2   : 2                         WHAPS048
  

 TILLAGE  YEAR DOY =   15  77
 User-specified tillage depth greater than that specified by tillage implement.
 Tillage operation date:   15  77                                              
 TI019: Fertilizer applicator, anhydr                                          
 User-specified depth = 10.0 cm                                                
 Implement depth of      5.0 cm will be used.                                  

 SOLORG  YEAR DOY =   15  77
 The initialized C:N ratio of the soil organic                                 
 matter (humus) in layer   8 is unlikely:      8.8                             
 A C:N ratio of 10.0 will be used to calculate initial soil organic N.         
 Please check your SOIL.SOL file.                                              

 SOLORG  YEAR DOY =   15  77
 The initialized C:N ratio of the soil organic                                 
 matter (humus) in layer   9 is unlikely:      8.8                             
 A C:N ratio of 10.0 will be used to calculate initial soil organic N.         
 Please check your SOIL.SOL file.                                              

******************************************************************************

*DSSAT Cropping System Model Ver. 4.8.5.000 -release  OCT 27, 2025 22:35:44

*RUN   3        : 3                         WHAPS048 TUDU1501    3
 MODEL          : WHAPS048 - Wheat
 EXPERIMENT     : TUDU1501 WH
 DATA PATH      :
 TREATMENT  3   : 3                         WHAPS048
  

 TILLAGE  YEAR DOY =   15  77
 User-specified tillage depth greater than that specified by tillage implement.
 Tillage operation date:   15  77                                              
 TI019: Fertilizer applicator, anhydr                                          
 User-specified depth = 10.0 cm                                                
 Implement depth of      5.0 cm will be used.                                  

 SOLORG  YEAR DOY =   15  77
 The initialized C:N ratio of the soil organic                                 
 matter (humus) in layer   8 is unlikely:      8.8                             
 A C:N ratio of 10.0 will be used to calculate initial soil organic N.         
 Please check your SOIL.SOL file.                                              

 SOLORG  YEAR DOY =   15  77
 The initialized C:N ratio of the soil organic                                 
 matter (humus) in layer   9 is unlikely:      8.8                             
 A C:N ratio of 10.0 will be used to calculate initial soil organic N.         
 Please check your SOIL.SOL file.                                              

 FPLACE  YEAR DOY =   15  98
 Invalid fertilizer data in experiment file.                                   
 Fertilizer type: FE900 Generic fertilizer                                     
 Amount N specified:     80.0 kg/ha                                            
 Check DETAIL.CDE file for valid fertilizer types.                             
 No N applied on this date.                                                    

 NWGRNI  YEAR DOY =   15 204
 pnout bound check >navl error                                                 

 NWGRNI  YEAR DOY =   15 206
 pnout bound check >navl error                                                 

 NWGRNI  YEAR DOY =   15 208
 pnout bound check >navl error                                                 

 NWGRNI  YEAR DOY =   15 217
 pnout bound check >navl error                                                 

 NWGRNI  YEAR DOY =   15 218
 pnout bound check >navl error                                                 

******************************************************************************

*DSSAT Cropping System Model Ver. 4.8.5.000 -release  OCT 27, 2025 22:35:44

*RUN   4        : 4                         WHAPS048 TUDU1501    4
 MODEL          : WHAPS048 - Wheat
 EXPERIMENT     : TUDU1501 WH
 DATA PATH      :
 TREATMENT  4   : 4                         WHAPS048
  

 TILLAGE  YEAR DOY =   15  77
 User-specified tillage depth greater than that specified by tillage implement.
 Tillage operation date:   15  77                                              
 TI019: Fertilizer applicator, anhydr                                          
 User-specified depth = 10.0 cm                                                
 Implement depth of      5.0 cm will be used.                                  

 SOLORG  YEAR DOY =   15  77
 The initialized C:N ratio of the soil organic                                 
 matter (humus) in layer   8 is unlikely:      8.8                             
 A C:N ratio of 10.0 will be used to calculate initial soil organic N.         
 Please check your SOIL.SOL file.                                              

 SOLORG  YEAR DOY =   15  77
 The initialized C:N ratio of the soil organic                                 
 matter (humus) in layer   9 is unlikely:      8.8                             
 A C:N ratio of 10.0 will be used to calculate initial soil organic N.         
 Please check your SOIL.SOL file.                                              

******************************************************************************

*DSSAT Cropping System Model Ver. 4.8.5.000 -release  OCT 27, 2025 22:35:44

*RUN   5        : 5                         WHAPS048 TUDU1501    5
 MODEL          : WHAPS048 - Wheat
 EXPERIMENT     : TUDU1501 WH
 DATA PATH      :
 TREATMENT  5   : 5                         WHAPS048
  

 TILLAGE  YEAR DOY =   15  77
 User-specified tillage depth greater than that specified by tillage implement.
 Tillage operation date:   15  77                                              
 TI019: Fertilizer applicator, anhydr                                          
 User-specified depth = 10.0 cm                                                
 Implement depth of      5.0 cm will be used.                                  

 SOLORG  YEAR DOY =   15  77
 The initialized C:N ratio of the soil organic                                 
 matter (humus) in layer   8 is unlikely:      8.8                             
 A C:N ratio of 10.0 will be used to calculate initial soil organic N.         
 Please check your SOIL.SOL file.                                              

 SOLORG  YEAR DOY =   15  77
 The initialized C:N ratio of the soil organic                                 
 matter (humus) in layer   9 is unlikely:      8.8                             
 A C:N ratio of 10.0 will be used to calculate initial soil organic N.         
 Please check your SOIL.SOL file.                                              

******************************************************************************

*DSSAT Cropping System Model Ver. 4.8.5.000 -release  OCT 27, 2025 22:35:45

*RUN   6        : 6                         WHAPS048 TUDU1501    6
 MODEL          : WHAPS048 - Wheat
 EXPERIMENT     : TUDU1501 WH
 DATA PATH      :
 TREATMENT  6   : 6                         WHAPS048
  

 TILLAGE  YEAR DOY =   15  77
 User-specified tillage depth greater than that specified by tillage implement.
 Tillage operation date:   15  77                                              
 TI019: Fertilizer applicator, anhydr                                          
 User-specified depth = 10.0 cm                                                
 Implement depth of      5.0 cm will be used.                                  

 SOLORG  YEAR DOY =   15  77
 The initialized C:N ratio of the soil organic                                 
 matter (humus) in layer   8 is unlikely:      8.8                             
 A C:N ratio of 10.0 will be used to calculate initial soil organic N.         
 Please check your SOIL.SOL file.                                              

 SOLORG  YEAR DOY =   15  77
 The initialized C:N ratio of the soil organic                                 
 matter (humus) in layer   9 is unlikely:      8.8                             
 A C:N ratio of 10.0 will be used to calculate initial soil organic N.         
 Please check your SOIL.SOL file.                                              

 NWGRNI  YEAR DOY =   15 208
 pnout bound check >navl error                                                 

******************************************************************************

*DSSAT Cropping System Model Ver. 4.8.5.000 -release  OCT 27, 2025 22:35:45

*RUN   7        : 7                         WHAPS048 TUDU1501    7
 MODEL          : WHAPS048 - Wheat
 EXPERIMENT     : TUDU1501 WH
 DATA PATH      :
 TREATMENT  7   : 7                         WHAPS048
  

 TILLAGE  YEAR DOY =   15  77
 User-specified tillage depth greater than that specified by tillage implement.
 Tillage operation date:   15  77                                              
 TI019: Fertilizer applicator, anhydr                                          
 User-specified depth = 10.0 cm                                                
 Implement depth of      5.0 cm will be used.                                  

 SOLORG  YEAR DOY =   15  77
 The initialized C:N ratio of the soil organic                                 
 matter (humus) in layer   8 is unlikely:      8.8                             
 A C:N ratio of 10.0 will be used to calculate initial soil organic N.         
 Please check your SOIL.SOL file.                                              

 SOLORG  YEAR DOY =   15  77
 The initialized C:N ratio of the soil organic                                 
 matter (humus) in layer   9 is unlikely:      8.8                             
 A C:N ratio of 10.0 will be used to calculate initial soil organic N.         
 Please check your SOIL.SOL file.                                              

******************************************************************************

*DSSAT Cropping System Model Ver. 4.8.5.000 -release  OCT 27, 2025 22:35:45

*RUN   8        : 8                         WHAPS048 TUDU1501    8
 MODEL          : WHAPS048 - Wheat
 EXPERIMENT     : TUDU1501 WH
 DATA PATH      :
 TREATMENT  8   : 8                         WHAPS048
  

 TILLAGE  YEAR DOY =   15  77
 User-specified tillage depth greater than that specified by tillage implement.
 Tillage operation date:   15  77                                              
 TI019: Fertilizer applicator, anhydr                                          
 User-specified depth = 10.0 cm                                                
 Implement depth of      5.0 cm will be used.                                  

 SOLORG  YEAR DOY =   15  77
 The initialized C:N ratio of the soil organic                                 
 matter (humus) in layer   8 is unlikely:      8.8                             
 A C:N ratio of 10.0 will be used to calculate initial soil organic N.         
 Please check your SOIL.SOL file.                                              

 SOLORG  YEAR DOY =   15  77
 The initialized C:N ratio of the soil organic                                 
 matter (humus) in layer   9 is unlikely:      8.8                             
 A C:N ratio of 10.0 will be used to calculate initial soil organic N.         
 Please check your SOIL.SOL file.                                              

******************************************************************************

*DSSAT Cropping System Model Ver. 4.8.5.000 -release  OCT 27, 2025 22:35:45

*RUN   9        : 9                         WHAPS048 TUDU1501    9
 MODEL          : WHAPS048 - Wheat
 EXPERIMENT     : TUDU1501 WH
 DATA PATH      :
 TREATMENT  9   : 9                         WHAPS048
  

 TILLAGE  YEAR DOY =   15  77
 User-specified tillage depth greater than that specified by tillage implement.
 Tillage operation date:   15  77                                              
 TI019: Fertilizer applicator, anhydr                                          
 User-specified depth = 10.0 cm                                                
 Implement depth of      5.0 cm will be used.                                  

 SOLORG  YEAR DOY =   15  77
 The initialized C:N ratio of the soil organic                                 
 matter (humus) in layer   8 is unlikely:      8.8                             
 A C:N ratio of 10.0 will be used to calculate initial soil organic N.         
 Please check your SOIL.SOL file.                                              

 SOLORG  YEAR DOY =   15  77
 The initialized C:N ratio of the soil organic                                 
 matter (humus) in layer   9 is unlikely:      8.8                             
 A C:N ratio of 10.0 will be used to calculate initial soil organic N.         
 Please check your SOIL.SOL file.                                              

******************************************************************************

*DSSAT Cropping System Model Ver. 4.8.5.000 -release  OCT 27, 2025 22:35:45

*RUN  10        : 10                        WHAPS048 TUDU1501   10
 MODEL          : WHAPS048 - Wheat
 EXPERIMENT     : TUDU1501 WH
 DATA PATH      :
 TREATMENT 10   : 10                        WHAPS048
  

 TILLAGE  YEAR DOY =   15  77
 User-specified tillage depth greater than that specified by tillage implement.
 Tillage operation date:   15  77                                              
 TI019: Fertilizer applicator, anhydr                                          
 User-specified depth = 10.0 cm                                                
 Implement depth of      5.0 cm will be used.                                  

 SOLORG  YEAR DOY =   15  77
 The initialized C:N ratio of the soil organic                                 
 matter (humus) in layer   8 is unlikely:      8.8                             
 A C:N ratio of 10.0 will be used to calculate initial soil organic N.         
 Please check your SOIL.SOL file.                                              

 SOLORG  YEAR DOY =   15  77
 The initialized C:N ratio of the soil organic                                 
 matter (humus) in layer   9 is unlikely:      8.8                             
 A C:N ratio of 10.0 will be used to calculate initial soil organic N.         
 Please check your SOIL.SOL file.                                              

 FPLACE  YEAR DOY =   15  98
 Invalid fertilizer data in experiment file.                                   
 Fertilizer type: FE900 Generic fertilizer                                     
 Amount N specified:    120.0 kg/ha                                            
 Check DETAIL.CDE file for valid fertilizer types.                             
 No N applied on this date.                                                    

 NWGRNI  YEAR DOY =   15 203
 pnout bound check >navl error                                                 

 NWGRNI  YEAR DOY =   15 218
 pnout bound check >navl error                                                 

******************************************************************************

*DSSAT Cropping System Model Ver. 4.8.5.000 -release  OCT 27, 2025 22:35:45

*RUN  11        : 11                        WHAPS048 TUDU1501   11
 MODEL          : WHAPS048 - Wheat
 EXPERIMENT     : TUDU1501 WH
 DATA PATH      :
 TREATMENT 11   : 11                        WHAPS048
  

 TILLAGE  YEAR DOY =   15  77
 User-specified tillage depth greater than that specified by tillage implement.
 Tillage operation date:   15  77                                              
 TI019: Fertilizer applicator, anhydr                                          
 User-specified depth = 10.0 cm                                                
 Implement depth of      5.0 cm will be used.                                  

 SOLORG  YEAR DOY =   15  77
 The initialized C:N ratio of the soil organic                                 
 matter (humus) in layer   8 is unlikely:      8.8                             
 A C:N ratio of 10.0 will be used to calculate initial soil organic N.         
 Please check your SOIL.SOL file.                                              

 SOLORG  YEAR DOY =   15  77
 The initialized C:N ratio of the soil organic                                 
 matter (humus) in layer   9 is unlikely:      8.8                             
 A C:N ratio of 10.0 will be used to calculate initial soil organic N.         
 Please check your SOIL.SOL file.                                              

******************************************************************************

*DSSAT Cropping System Model Ver. 4.8.5.000 -release  OCT 27, 2025 22:35:45

*RUN  12        : 12                        WHAPS048 TUDU1501   12
 MODEL          : WHAPS048 - Wheat
 EXPERIMENT     : TUDU1501 WH
 DATA PATH      :
 TREATMENT 12   : 12                        WHAPS048
  

 TILLAGE  YEAR DOY =   15  77
 User-specified tillage depth greater than that specified by tillage implement.
 Tillage operation date:   15  77                                              
 TI019: Fertilizer applicator, anhydr                                          
 User-specified depth = 10.0 cm                                                
 Implement depth of      5.0 cm will be used.                                  

 SOLORG  YEAR DOY =   15  77
 The initialized C:N ratio of the soil organic                                 
 matter (humus) in layer   8 is unlikely:      8.8                             
 A C:N ratio of 10.0 will be used to calculate initial soil organic N.         
 Please check your SOIL.SOL file.                                              

 SOLORG  YEAR DOY =   15  77
 The initialized C:N ratio of the soil organic                                 
 matter (humus) in layer   9 is unlikely:      8.8                             
 A C:N ratio of 10.0 will be used to calculate initial soil organic N.         
 Please check your SOIL.SOL file.                                              

******************************************************************************

*DSSAT Cropping System Model Ver. 4.8.5.000 -release  OCT 27, 2025 22:35:45

*RUN  13        : 13                        WHAPS048 TUDU1501   13
 MODEL          : WHAPS048 - Wheat
 EXPERIMENT     : TUDU1501 WH
 DATA PATH      :
 TREATMENT 13   : 13                        WHAPS048
  

 TILLAGE  YEAR DOY =   15  77
 User-specified tillage depth greater than that specified by tillage implement.
 Tillage operation date:   15  77                                              
 TI019: Fertilizer applicator, anhydr                                          
 User-specified depth = 10.0 cm                                                
 Implement depth of      5.0 cm will be used.                                  

 SOLORG  YEAR DOY =   15  77
 The initialized C:N ratio of the soil organic                                 
 matter (humus) in layer   8 is unlikely:      8.8                             
 A C:N ratio of 10.0 will be used to calculate initial soil organic N.         
 Please check your SOIL.SOL file.                                              

 SOLORG  YEAR DOY =   15  77
 The initialized C:N ratio of the soil organic                                 
 matter (humus) in layer   9 is unlikely:      8.8                             
 A C:N ratio of 10.0 will be used to calculate initial soil organic N.         
 Please check your SOIL.SOL file.                                              

******************************************************************************

*DSSAT Cropping System Model Ver. 4.8.5.000 -release  OCT 27, 2025 22:35:45

*RUN  14        : 14                        WHAPS048 TUDU1501   14
 MODEL          : WHAPS048 - Wheat
 EXPERIMENT     : TUDU1501 WH
 DATA PATH      :
 TREATMENT 14   : 14                        WHAPS048
  

 TILLAGE  YEAR DOY =   15  77
 User-specified tillage depth greater than that specified by tillage implement.
 Tillage operation date:   15  77                                              
 TI019: Fertilizer applicator, anhydr                                          
 User-specified depth = 10.0 cm                                                
 Implement depth of      5.0 cm will be used.                                  

 SOLORG  YEAR DOY =   15  77
 The initialized C:N ratio of the soil organic                                 
 matter (humus) in layer   8 is unlikely:      8.8                             
 A C:N ratio of 10.0 will be used to calculate initial soil organic N.         
 Please check your SOIL.SOL file.                                              

 SOLORG  YEAR DOY =   15  77
 The initialized C:N ratio of the soil organic                                 
 matter (humus) in layer   9 is unlikely:      8.8                             
 A C:N ratio of 10.0 will be used to calculate initial soil organic N.         
 Please check your SOIL.SOL file.                                              

******************************************************************************

*DSSAT Cropping System Model Ver. 4.8.5.000 -release  OCT 27, 2025 22:35:46

*RUN  15        : 15                        WHAPS048 TUDU1501   15
 MODEL          : WHAPS048 - Wheat
 EXPERIMENT     : TUDU1501 WH
 DATA PATH      :
 TREATMENT 15   : 15                        WHAPS048
  

 TILLAGE  YEAR DOY =   15  77
 User-specified tillage depth greater than that specified by tillage implement.
 Tillage operation date:   15  77                                              
 TI019: Fertilizer applicator, anhydr                                          
 User-specified depth = 10.0 cm                                                
 Implement depth of      5.0 cm will be used.                                  

 SOLORG  YEAR DOY =   15  77
 The initialized C:N ratio of the soil organic                                 
 matter (humus) in layer   8 is unlikely:      8.8                             
 A C:N ratio of 10.0 will be used to calculate initial soil organic N.         
 Please check your SOIL.SOL file.                                              

 SOLORG  YEAR DOY =   15  77
 The initialized C:N ratio of the soil organic                                 
 matter (humus) in layer   9 is unlikely:      8.8                             
 A C:N ratio of 10.0 will be used to calculate initial soil organic N.         
 Please check your SOIL.SOL file.                                              

 NWGRNI  YEAR DOY =   15 219
 pnout bound check >navl error                                                 
