*GHG emissions output file

*DSSAT Cropping System Model Ver. 4.8.5.000 -release  SEP 11, 2025 22:39:39

*RUN   1        : DRYLAND  - 0 KG N/HA      CSCER048 KSAS8101    1
 MODEL          : CSCER048 - Wheat
 EXPERIMENT     : KSAS8101 WH N RESPONSE,KANSAS STATE  3FE(N)*2IR  (DSSAT3)
 DATA PATH      :
 TREATMENT  1   : DRYLAND  - 0 KG N/HA      CSCER048
  
!               |---------- Daily (g/ha) ----------|------- Cumulative (kg/ha) --------|---- Cum CO2-equiv kg[CO2eq]/ha ---|
!               Soil CO2  Net CO2      N2O      CH4 Soil CO2  Net CO2      N2O      CH4  Net CO2      N2O      CH4    Total
!                g[C]/ha  g[C]/ha  g[N]/ha  g[C]/ha kg[C]/ha kg[C]/ha kg[N]/ha kg[C]/ha    CO2eq    CO2eq    CO2eq    CO2eq
@YEAR DOY   DAS   CO2GED   CO2END   N2OGED   CH4GED    CO2EC   CO2ENC    N2OEC    CH4EC    CCEQC    NCEQC    MCEQC    TCEQC
 1981 279     1    81683   -16773     0.29     0.00       82      -17     0.00     0.00      -62        0        0      -61
 1981 280     2    62008   -12125     0.54     0.00      144      -29     0.00     0.00     -106        0        0     -106
 1981 281     3    48874    -9117     0.77     0.00      193      -38     0.00     0.00     -140        1        0     -139
 1981 282     4    35700    -6148     1.00     0.00      228      -44     0.00     0.00     -162        1        0     -161
 1981 283     5    29910    -4906     1.17     0.00      258      -49     0.00     0.00     -180        2        0     -178
 1981 284     6    23331    -3516     1.36     0.00      282      -53     0.01     0.00     -193        2        0     -191
 1981 285     7    21583    -3086     1.52     0.00      303      -56     0.01     0.00     -204        3        0     -201
 1981 286     8    31886    -5484     1.44     0.00      335      -61     0.01     0.00     -224        4        0     -221
 1981 287     9    35866    -6219     1.66     0.00      371      -67     0.01     0.00     -247        5        0     -243
 1981 288    10    37191    -6453     1.84     0.00      408      -74     0.01     0.00     -271        5        0     -266
 1981 289    11    34203    -5703     2.05     0.00      442      -80     0.01     0.00     -292        6        0     -285
 1981 290    12    32012    -5172     2.23     0.00      474      -85     0.02     0.00     -311        7        0     -303
 1981 291    13    44748    -8273     2.24     0.00      519      -93     0.02     0.00     -341        8        0     -333
 1981 292    14    33524    -5789     2.39     0.00      553      -99     0.02     0.00     -362       10        0     -353
 1981 293    15    25192    -3883     2.65     0.00      578     -103     0.02     0.00     -377       11        0     -366
 1981 294    16    24723    -3641     2.73     0.00      602     -106     0.03     0.00     -390       12        0     -378
 1981 295    17    22149    -3039     2.76     0.00      625     -109     0.03     0.00     -401       13        0     -388
 1981 296    18    16584    -1930     2.75     0.00      641     -111     0.03     0.00     -408       15        0     -394
 1981 297    19    12763    -1219     2.70     0.00      654     -112     0.03     0.00     -413       16        0     -397
 1981 298    20    10187     -727     2.64     0.00      664     -113     0.04     0.00     -415       17        0     -398
 1981 299    21     7698     -359     2.30     0.00      672     -114     0.04     0.00     -417       18        0     -398
 1981 300    22     5764       -8     2.30     0.00      678     -114     0.04     0.00     -417       19        0     -397
 1981 301    23     8129     -383     2.25     0.00      686     -114     0.04     0.00     -418       20        0     -398
 1981 302    24    12469    -1055     2.17     0.00      698     -115     0.05     0.00     -422       21        0     -401
 1981 303    25    15258    -1430     2.07     0.00      713     -116     0.05     0.00     -427       22        0     -405
 1981 304    26    16718    -1586     1.95     0.00      730     -118     0.05     0.00     -433       23        0     -410
 1981 305    27    18657    -1875     1.79     0.00      749     -120     0.05     0.00     -440       24        0     -416
 1981 306    28    32277    -4758     1.19     0.00      781     -125     0.05     0.00     -457       25        0     -433
 1981 307    29    28440    -4094     1.20     0.00      810     -129     0.05     0.00     -473       25        0     -447
 1981 308    30    26427    -3820     1.31     0.00      836     -133     0.06     0.00     -487       26        0     -461
 1981 309    31    20996    -2664     1.04     0.00      857     -135     0.06     0.00     -496       26        0     -470
 1981 310    32    19054    -2305     1.22     0.00      876     -138     0.06     0.00     -505       27        0     -478
 1981 311    33    16066    -1805     1.32     0.00      892     -139     0.06     0.00     -511       28        0     -484
 1981 312    34    14964    -1578     1.48     0.00      907     -141     0.06     0.00     -517       28        0     -489
 1981 313    35    13608    -1258     1.12     0.00      921     -142     0.06     0.00     -522       29        0     -493
 1981 314    36     9808     -664     1.81     0.00      930     -143     0.06     0.00     -524       30        0     -495
 1981 315    37     7319     -289     2.15     0.00      938     -143     0.07     0.00     -525       31        0     -495
 1981 316    38     7686     -313     2.59     0.00      945     -143     0.07     0.00     -526       32        0     -495
 1981 317    39     7766     -281     3.10     0.00      953     -144     0.07     0.00     -527       33        0     -494
 1981 318    40     7085     -133     3.60     0.00      960     -144     0.07     0.00     -528       35        0     -493
 1981 319    41    10820     -656     4.00     0.00      971     -145     0.08     0.00     -530       37        0     -494
 1981 320    42    13916    -1055     4.34     0.00      985     -146     0.08     0.00     -534       39        0     -495
 1981 321    43    16907    -1383     4.61     0.00     1002     -147     0.09     0.00     -539       41        0     -498
 1981 322    44    16691    -1273     4.81     0.00     1019     -148     0.09     0.00     -544       43        0     -501
 1981 323    45    17226    -1250     4.97     0.00     1036     -149     0.10     0.00     -549       46        0     -503
 1981 324    46    14172     -844     5.02     0.00     1050     -150     0.10     0.00     -552       48        0     -504
 1981 325    47     9294     -203     5.11     0.00     1059     -151     0.11     0.00     -552       50        0     -502
 1981 326    48     4604      352     5.14     0.00     1064     -150     0.11     0.00     -551       53        0     -498
 1981 327    49     2914      563     5.15     0.00     1067     -150     0.12     0.00     -549       55        0     -494
 1981 328    50     1979      656     5.13     0.00     1069     -149     0.12     0.00     -547       58        0     -489
 1981 329    51     2461      602     5.09     0.00     1071     -148     0.13     0.00     -544       60        0     -484
 1981 330    52     5425      313     5.04     0.00     1077     -148     0.13     0.00     -543       62        0     -481
 1981 331    53     6456      219     4.99     0.00     1083     -148     0.14     0.00     -543       65        0     -478
 1981 332    54     4534      422     4.93     0.00     1088     -147     0.14     0.00     -541       67        0     -474
 1981 333    55     2567      602     4.87     0.00     1090     -147     0.15     0.00     -539       69        0     -470
 1981 334    56     1788      672     4.80     0.00     1092     -146     0.15     0.00     -536       71        0     -465
 1981 335    57     1353      578     2.97     0.00     1093     -146     0.16     0.00     -534       73        0     -461
 1981 336    58     1015      469     3.43     0.00     1094     -145     0.16     0.00     -532       74        0     -458
 1981 337    59     1163      516     4.21     0.00     1096     -145     0.16     0.00     -531       76        0     -454
 1981 338    60     1282      563     4.29     0.00     1097     -144     0.17     0.00     -528       78        0     -450
 1981 339    61     1341      570     4.37     0.00     1098     -143     0.17     0.00     -526       80        0     -446
 1981 340    62     1183      531     4.39     0.00     1099     -143     0.18     0.00     -524       83        0     -442
 1981 341    63     1677      617     4.42     0.00     1101     -142     0.18     0.00     -522       85        0     -438
 1981 342    64     4542      203     4.52     0.00     1106     -142     0.19     0.00     -521       87        0     -435
 1981 343    65     4051      281     4.57     0.00     1110     -142     0.19     0.00     -520       89        0     -432
 1981 344    66     3347      391     4.62     0.00     1113     -141     0.19     0.00     -519       91        0     -428
 1981 345    67     2050      555     4.51     0.00     1115     -141     0.20     0.00     -517       93        0     -424
 1981 346    68     1218      563     4.44     0.00     1116     -140     0.20     0.00     -515       95        0     -420
 1981 347    69      821      422     4.39     0.00     1117     -140     0.21     0.00     -513       97        0     -416
 1981 348    70      790      406     4.35     0.00     1118     -139     0.21     0.00     -512       99        0     -413
 1981 349    71      732      383     4.31     0.00     1119     -139     0.22     0.00     -510      101        0     -409
 1981 350    72      729      383     4.29     0.00     1119     -139     0.22     0.00     -509      103        0     -406
 1981 351    73      523      289     4.25     0.00     1120     -138     0.22     0.00     -508      105        0     -403
 1981 352    74      263      172     4.21     0.00     1120     -138     0.23     0.00     -507      107        0     -400
 1981 353    75      114       70     4.18     0.00     1120     -138     0.23     0.00     -507      109        0     -398
 1981 354    76       45       31     4.14     0.00     1120     -138     0.24     0.00     -507      111        0     -396
 1981 355    77       32       23     4.05     0.00     1120     -138     0.24     0.00     -507      113        0     -394
 1981 356    78       45       31     3.78     0.00     1120     -138     0.25     0.00     -507      115        0     -392
 1981 357    79      117       94     4.03     0.00     1120     -138     0.25     0.00     -506      117        0     -390
 1981 358    80      214      133     3.98     0.00     1121     -138     0.25     0.00     -506      119        0     -387
 1981 359    81      338      203     3.94     0.00     1121     -138     0.26     0.00     -505      120        0     -385
 1981 360    82      454      258     3.88     0.00     1122     -137     0.26     0.00     -504      122        0     -382
 1981 361    83      362      219     3.78     0.00     1122     -137     0.26     0.00     -503      124        0     -379
 1981 362    84      283      188     3.65     0.00     1122     -137     0.27     0.00     -503      126        0     -377
 1981 363    85      239      156     3.53     0.00     1122     -137     0.27     0.00     -502      127        0     -375
 1981 364    86      193      117     3.43     0.00     1123     -137     0.28     0.00     -502      129        0     -373
 1981 365    87      184      125     3.34     0.00     1123     -137     0.28     0.00     -501      131        0     -371
 1982 001    88      196      133     3.24     0.00     1123     -136     0.28     0.00     -501      132        0     -369
 1982 002    89      187      125     3.08     0.00     1123     -136     0.29     0.00     -500      134        0     -367
 1982 003    90      238      156     2.87     0.00     1123     -136     0.29     0.00     -500      135        0     -365
 1982 004    91      201      133     2.78     0.00     1124     -136     0.29     0.00     -499      136        0     -363
 1982 005    92      126       86     2.42     0.00     1124     -136     0.29     0.00     -499      137        0     -362
 1982 006    93      103       70     2.67     0.00     1124     -136     0.30     0.00     -499      139        0     -360
 1982 007    94       72       55     2.58     0.00     1124     -136     0.30     0.00     -498      140        0     -359
 1982 008    95       25       16     2.51     0.00     1124     -136     0.30     0.00     -498      141        0     -358
 1982 009    96       30       23     2.46     0.00     1124     -136     0.30     0.00     -498      142        0     -356
 1982 010    97       24       16     2.41     0.00     1124     -136     0.31     0.00     -498      143        0     -355
 1982 011    98        0        0     2.36     0.00     1124     -136     0.31     0.00     -498      144        0     -354
 1982 012    99        0        0     2.33     0.00     1124     -136     0.31     0.00     -498      145        0     -353
 1982 013   100        0        0     2.29     0.00     1124     -136     0.31     0.00     -498      146        0     -352
 1982 014   101        0        0     2.26     0.00     1124     -136     0.32     0.00     -498      148        0     -351
 1982 015   102        0        0     2.22     0.00     1124     -136     0.32     0.00     -498      149        0     -350
 1982 016   103        0        0     2.19     0.00     1124     -136     0.32     0.00     -498      150        0     -349
 1982 017   104        0        0     2.15     0.00     1124     -136     0.32     0.00     -498      151        0     -348
 1982 018   105        0        0     2.11     0.00     1124     -136     0.32     0.00     -498      152        0     -347
 1982 019   106       22       16     2.07     0.00     1124     -136     0.33     0.00     -498      153        0     -346
 1982 020   107       28       23     2.03     0.00     1124     -136     0.33     0.00     -498      154        0     -345
 1982 021   108       22       16     1.94     0.00     1124     -136     0.33     0.00     -498      154        0     -344
 1982 022   109       45       31     1.86     0.00     1124     -136     0.33     0.00     -498      155        0     -343
 1982 023   110       78       63     1.76     0.00     1124     -136     0.33     0.00     -498      156        0     -342
 1982 024   111       27       23     1.68     0.00     1124     -136     0.34     0.00     -498      157        0     -341
 1982 025   112        8        0     1.60     0.00     1124     -136     0.34     0.00     -498      158        0     -340
 1982 026   113       10        8     1.47     0.00     1124     -136     0.34     0.00     -498      158        0     -339
 1982 027   114       18       16     1.38     0.00     1124     -136     0.34     0.00     -498      159        0     -339
 1982 028   115       39       31     1.30     0.00     1124     -136     0.34     0.00     -497      160        0     -338
 1982 029   116      100       70     1.23     0.00     1124     -135     0.34     0.00     -497      160        0     -337
 1982 030   117      232      141     1.15     0.00     1125     -135     0.34     0.00     -497      161        0     -336
 1982 031   118      248      156     0.85     0.00     1125     -135     0.34     0.00     -496      161        0     -335
 1982 032   119      128       86     0.97     0.00     1125     -135     0.35     0.00     -496      162        0     -334
 1982 033   120       52       39     0.97     0.00     1125     -135     0.35     0.00     -496      162        0     -334
 1982 034   121       32       23     0.90     0.00     1125     -135     0.35     0.00     -496      162        0     -333
 1982 035   122        0        0     0.83     0.00     1125     -135     0.35     0.00     -496      163        0     -333
 1982 036   123        0        0     0.78     0.00     1125     -135     0.35     0.00     -496      163        0     -332
 1982 037   124        0        0     0.74     0.00     1125     -135     0.35     0.00     -496      164        0     -332
 1982 038   125        0        0     0.71     0.00     1125     -135     0.35     0.00     -496      164        0     -332
 1982 039   126        0        0     0.67     0.00     1125     -135     0.35     0.00     -496      164        0     -331
 1982 040   127        0        0     0.66     0.00     1125     -135     0.35     0.00     -496      164        0     -331
 1982 041   128        0        0     0.66     0.00     1125     -135     0.35     0.00     -496      165        0     -331
 1982 042   129        0        0     0.65     0.00     1125     -135     0.35     0.00     -496      165        0     -330
 1982 043   130        0        0     0.66     0.00     1125     -135     0.35     0.00     -496      165        0     -330
 1982 044   131        0        0     0.54     0.00     1125     -135     0.35     0.00     -496      166        0     -330
 1982 045   132        0        0     0.63     0.00     1125     -135     0.35     0.00     -496      166        0     -330
 1982 046   133        0        0     0.61     0.00     1125     -135     0.36     0.00     -496      166        0     -329
 1982 047   134        0        0     0.62     0.00     1125     -135     0.36     0.00     -496      167        0     -329
 1982 048   135       27       16     0.64     0.00     1125     -135     0.36     0.00     -496      167        0     -329
 1982 049   136       49       47     0.64     0.00     1125     -135     0.36     0.00     -495      167        0     -328
 1982 050   137      143       78     0.63     0.00     1125     -135     0.36     0.00     -495      167        0     -328
 1982 051   138      264      156     0.64     0.00     1126     -135     0.36     0.00     -494      168        0     -327
 1982 052   139     2636     -219     0.64     0.00     1128     -135     0.36     0.00     -495      168        0     -327
 1982 053   140     4425     -453     0.64     0.00     1133     -135     0.36     0.00     -497      168        0     -329
 1982 054   141     7163     -797     0.62     0.00     1140     -136     0.36     0.00     -500      169        0     -331
 1982 055   142     7907     -906     0.58     0.00     1148     -137     0.36     0.00     -503      169        0     -334
 1982 056   143     5890     -617     0.56     0.00     1154     -138     0.36     0.00     -505      169        0     -336
 1982 057   144     1868     -102     0.54     0.00     1155     -138     0.36     0.00     -506      169        0     -336
 1982 058   145       83       63     0.52     0.00     1156     -138     0.36     0.00     -506      170        0     -336
 1982 059   146       21       16     0.51     0.00     1156     -138     0.36     0.00     -506      170        0     -336
 1982 060   147        7        0     0.51     0.00     1156     -138     0.36     0.00     -506      170        0     -335
 1982 061   148       16       16     0.52     0.00     1156     -138     0.36     0.00     -505      170        0     -335
 1982 062   149       55       47     0.53     0.00     1156     -138     0.36     0.00     -505      171        0     -335
 1982 063   150       62       39     0.54     0.00     1156     -138     0.36     0.00     -505      171        0     -334
 1982 064   151       30       23     0.56     0.00     1156     -138     0.37     0.00     -505      171        0     -334
 1982 065   152        3        0     0.58     0.00     1156     -138     0.37     0.00     -505      171        0     -334
 1982 066   153        0        0     0.62     0.00     1156     -138     0.37     0.00     -505      172        0     -333
 1982 067   154        0        0     0.65     0.00     1156     -138     0.37     0.00     -505      172        0     -333
 1982 068   155        0        0     0.68     0.00     1156     -138     0.37     0.00     -505      172        0     -333
 1982 069   156        0        0     0.72     0.00     1156     -138     0.37     0.00     -505      173        0     -332
 1982 070   157        0        0     0.74     0.00     1156     -138     0.37     0.00     -505      173        0     -332
 1982 071   158       20       16     0.77     0.00     1156     -138     0.37     0.00     -505      173        0     -332
 1982 072   159     2232     -219     0.79     0.00     1158     -138     0.37     0.00     -506      174        0     -332
 1982 073   160     3524     -352     0.80     0.00     1161     -138     0.37     0.00     -507      174        0     -333
 1982 074   161     5426     -578     0.79     0.00     1167     -139     0.37     0.00     -509      174        0     -335
 1982 075   162     8792    -1414     0.63     0.00     1176     -140     0.37     0.00     -514      175        0     -340
 1982 076   163     8966    -1336     0.70     0.00     1185     -142     0.37     0.00     -519      175        0     -344
 1982 077   164     9547    -1453     0.76     0.00     1194     -143     0.37     0.00     -525      175        0     -349
 1982 078   165    10267    -1563     0.77     0.00     1204     -145     0.38     0.00     -530      176        0     -355
 1982 079   166    14246    -2219     0.75     0.00     1219     -147     0.38     0.00     -539      176        0     -362
 1982 080   167    12905    -1969     0.83     0.00     1232     -149     0.38     0.00     -546      177        0     -369
 1982 081   168     7624    -1117     0.92     0.00     1239     -150     0.38     0.00     -550      177        0     -373
 1982 082   169     3884     -578     0.99     0.00     1243     -150     0.38     0.00     -552      177        0     -375
 1982 083   170     3013     -453     1.06     0.00     1246     -151     0.38     0.00     -554      178        0     -376
 1982 084   171      295      -55     1.12     0.00     1246     -151     0.38     0.00     -554      178        0     -375
 1982 085   172        0        0     1.07     0.00     1246     -151     0.38     0.00     -554      179        0     -375
 1982 086   173        0        0     1.14     0.00     1246     -151     0.38     0.00     -554      180        0     -374
 1982 087   174       11       -8     1.20     0.00     1246     -151     0.38     0.00     -554      180        0     -374
 1982 088   175        0        0     1.24     0.00     1246     -151     0.39     0.00     -554      181        0     -373
 1982 089   176      483     -102     1.26     0.00     1247     -151     0.39     0.00     -554      181        0     -373
 1982 090   177     3557     -531     1.24     0.00     1250     -152     0.39     0.00     -556      182        0     -374
 1982 091   178     5469     -742     1.26     0.00     1256     -152     0.39     0.00     -559      182        0     -377
 1982 092   179     7228     -859     1.26     0.00     1263     -153     0.39     0.00     -562      183        0     -379
 1982 093   180     9201    -1000     1.26     0.00     1272     -154     0.39     0.00     -566      184        0     -382
 1982 094   181     7967     -813     1.25     0.00     1280     -155     0.39     0.00     -569      184        0     -385
 1982 095   182     5402     -570     1.23     0.00     1286     -156     0.39     0.00     -571      185        0     -386
 1982 096   183     6152     -992     1.06     0.00     1292     -157     0.40     0.00     -574      185        0     -389
 1982 097   184     1365     -289     1.05     0.00     1293     -157     0.40     0.00     -576      186        0     -390
 1982 098   185        0        0     1.04     0.00     1293     -157     0.40     0.00     -576      186        0     -389
 1982 099   186        0        0     1.01     0.00     1293     -157     0.40     0.00     -576      187        0     -389
 1982 100   187        0        0     0.99     0.00     1293     -157     0.40     0.00     -576      187        0     -388
 1982 101   188        0        0     0.96     0.00     1293     -157     0.40     0.00     -576      188        0     -388
 1982 102   189     1186     -234     0.93     0.00     1294     -157     0.40     0.00     -576      188        0     -388
 1982 103   190     4437     -508     0.90     0.00     1299     -158     0.40     0.00     -578      188        0     -390
 1982 104   191     6142     -516     0.86     0.00     1305     -158     0.40     0.00     -580      189        0     -391
 1982 105   192     8246     -461     0.83     0.00     1313     -159     0.40     0.00     -582      189        0     -393
 1982 106   193     9630     -305     0.81     0.00     1323     -159     0.41     0.00     -583      190        0     -393
 1982 107   194     9439     -109     0.79     0.00     1332     -159     0.41     0.00     -583      190        0     -393
 1982 108   195     6914      117     0.76     0.00     1339     -159     0.41     0.00     -583      190        0     -393
 1982 109   196     5561      289     0.74     0.00     1345     -159     0.41     0.00     -582      191        0     -391
 1982 110   197     7464     -367     0.65     0.00     1352     -159     0.41     0.00     -583      191        0     -392
 1982 111   198     4330     -188     0.65     0.00     1357     -159     0.41     0.00     -584      191        0     -393
 1982 112   199     2495     -133     0.64     0.00     1359     -159     0.41     0.00     -584      192        0     -393
 1982 113   200     2035      -78     0.63     0.00     1361     -159     0.41     0.00     -585      192        0     -393
 1982 114   201     1722      -31     0.61     0.00     1363     -159     0.41     0.00     -585      192        0     -393
 1982 115   202     1565       23     0.60     0.00     1364     -159     0.41     0.00     -585      192        0     -392
 1982 116   203     2103       78     0.58     0.00     1367     -159     0.41     0.00     -584      193        0     -392
 1982 117   204     2277      227     0.59     0.00     1369     -159     0.41     0.00     -584      193        0     -391
 1982 118   205     2282      266     0.59     0.00     1371     -159     0.41     0.00     -583      193        0     -389
 1982 119   206     4680     -398     0.53     0.00     1376     -159     0.41     0.00     -584      194        0     -391
 1982 120   207     9863    -1781     0.49     0.00     1386     -161     0.41     0.00     -591      194        0     -397
 1982 121   208     9761    -1695     0.56     0.00     1395     -163     0.41     0.00     -597      194        0     -403
 1982 122   209     8999    -1453     0.60     0.00     1404     -164     0.42     0.00     -602      194        0     -408
 1982 123   210     9057    -1258     0.67     0.00     1413     -165     0.42     0.00     -607      195        0     -412
 1982 124   211     9540    -1016     0.76     0.00     1423     -166     0.42     0.00     -611      195        0     -416
 1982 125   212     8006     -297     0.86     0.00     1431     -167     0.42     0.00     -612      195        0     -416
 1982 126   213     7793     -164     0.89     0.00     1439     -167     0.42     0.00     -612      196        0     -416
 1982 127   214    21080    -3242     0.59     0.00     1460     -170     0.42     0.00     -624      196        0     -428
 1982 128   215    21251    -3266     0.82     0.00     1481     -173     0.42     0.00     -636      196        0     -440
 1982 129   216    16796    -2258     0.90     0.00     1498     -176     0.42     0.00     -644      197        0     -447
 1982 130   217    13292    -1508     0.98     0.00     1511     -177     0.42     0.00     -650      197        0     -453
 1982 131   218    11695    -1063     1.06     0.00     1523     -178     0.42     0.00     -654      198        0     -456
 1982 132   219    11598     -742     1.11     0.00     1535     -179     0.42     0.00     -657      198        0     -458
 1982 133   220    24166    -3523     0.85     0.00     1559     -182     0.42     0.00     -669      199        0     -471
 1982 134   221    25537    -3750     1.05     0.00     1584     -186     0.43     0.00     -683      199        0     -484
 1982 135   222    22999    -3305     1.12     0.00     1607     -189     0.43     0.00     -695      200        0     -496
 1982 136   223    20120    -2672     1.15     0.00     1627     -192     0.43     0.00     -705      200        0     -505
 1982 137   224    20425    -2797     1.20     0.00     1648     -195     0.43     0.00     -715      201        0     -515
 1982 138   225    20021    -2664     1.23     0.00     1668     -198     0.43     0.00     -725      201        0     -524
 1982 139   226    18114    -2164     1.28     0.00     1686     -200     0.43     0.00     -733      202        0     -531
 1982 140   227    15977    -1469     1.36     0.00     1702     -201     0.43     0.00     -739      203        0     -536
 1982 141   228    14998    -1141     1.41     0.00     1717     -202     0.43     0.00     -743      203        0     -539
 1982 142   229    20120    -2375     1.31     0.00     1737     -205     0.44     0.00     -751      204        0     -547
 1982 143   230    18606    -2016     1.36     0.00     1756     -207     0.44     0.00     -759      205        0     -554
 1982 144   231    15126    -1273     1.43     0.00     1771     -208     0.44     0.00     -764      205        0     -558
 1982 145   232    13299    -1023     1.46     0.00     1784     -209     0.44     0.00     -767      206        0     -561
 1982 146   233    16041    -1680     1.36     0.00     1800     -211     0.44     0.00     -773      207        0     -567
 1982 147   234    14439    -1289     1.38     0.00     1815     -212     0.44     0.00     -778      207        0     -571
 1982 148   235    15405    -1383     1.40     0.00     1830     -213     0.44     0.00     -783      208        0     -575
 1982 149   236    15094    -1109     1.45     0.00     1845     -215     0.45     0.00     -787      209        0     -579
 1982 150   237    16731    -1414     1.42     0.00     1862     -216     0.45     0.00     -792      209        0     -583
 1982 151   238    16306    -1211     1.43     0.00     1878     -217     0.45     0.00     -797      210        0     -587
 1982 152   239    16937    -1328     1.39     0.00     1895     -218     0.45     0.00     -802      211        0     -591
 1982 153   240    14160     -859     1.43     0.00     1909     -219     0.45     0.00     -805      211        0     -594
 1982 154   241    12175     -727     1.45     0.00     1921     -220     0.45     0.00     -808      212        0     -596
 1982 155   242    10872     -656     1.47     0.00     1932     -221     0.45     0.00     -810      213        0     -597
 1982 156   243    10232     -625     1.50     0.00     1942     -221     0.46     0.00     -812      213        0     -599
 1982 157   244     8701     -266     1.58     0.00     1951     -222     0.46     0.00     -813      214        0     -599
 1982 158   245     9534        0     1.69     0.00     1961     -222     0.46     0.00     -813      215        0     -598
 1982 159   246    13796     -813     1.64     0.00     1974     -222     0.46     0.00     -816      216        0     -601
 1982 160   247    13406     -266     1.76     0.00     1988     -223     0.46     0.00     -817      216        0     -601
 1982 161   248    16302     -734     1.73     0.00     2004     -223     0.46     0.00     -820      217        0     -603
 1982 162   249    13783     -148     1.87     0.00     2018     -224     0.47     0.00     -821      218        0     -602
 1982 163   250    11375      109     1.97     0.00     2029     -223     0.47     0.00     -820      219        0     -601
 1982 164   251     9673      477     2.10     0.00     2039     -223     0.47     0.00     -818      220        0     -598
 1982 165   252     8153      656     2.15     0.00     2047     -222     0.47     0.00     -816      221        0     -595
 1982 166   253     7701      773     2.16     0.00     2055     -222     0.47     0.00     -813      222        0     -591
 1982 167   254    13918     -375     1.59     0.00     2069     -222     0.48     0.00     -814      223        0     -592
 1982 168   255    12617       -8     1.94     0.00     2081     -222     0.48     0.00     -815      224        0     -591
 1982 169   256    11151      383     2.04     0.00     2093     -222     0.48     0.00     -813      225        0     -588
 1982 170   257     9783      680     2.10     0.00     2102     -221     0.48     0.00     -811      226        0     -585
 1982 171   258     8312      875     2.09     0.00     2111     -220     0.48     0.00     -807      227        0     -581
 1982 172   259     7601     1031     2.05     0.00     2118     -219     0.49     0.00     -804      228        0     -576
 1982 173   260     7410     1195     1.99     0.00     2126     -218     0.49     0.00     -799      228        0     -571
 1982 174   261    13092      -55     1.31     0.00     2139     -218     0.49     0.00     -799      229        0     -570

*DSSAT Cropping System Model Ver. 4.8.5.000 -release  SEP 11, 2025 22:39:39

*RUN   2        : DRYLAND  - 60 KG N/HA     CSCER048 KSAS8101    2
 MODEL          : CSCER048 - Wheat
 EXPERIMENT     : KSAS8101 WH N RESPONSE,KANSAS STATE  3FE(N)*2IR  (DSSAT3)
 DATA PATH      :
 TREATMENT  2   : DRYLAND  - 60 KG N/HA     CSCER048
  
!               |---------- Daily (g/ha) ----------|------- Cumulative (kg/ha) --------|---- Cum CO2-equiv kg[CO2eq]/ha ---|
!               Soil CO2  Net CO2      N2O      CH4 Soil CO2  Net CO2      N2O      CH4  Net CO2      N2O      CH4    Total
!                g[C]/ha  g[C]/ha  g[N]/ha  g[C]/ha kg[C]/ha kg[C]/ha kg[N]/ha kg[C]/ha    CO2eq    CO2eq    CO2eq    CO2eq
@YEAR DOY   DAS   CO2GED   CO2END   N2OGED   CH4GED    CO2EC   CO2ENC    N2OEC    CH4EC    CCEQC    NCEQC    MCEQC    TCEQC
 1981 279     1    81683   -16773     0.29     0.00       82      -17     0.00     0.00      -62        0        0      -61
 1981 280     2    62008   -12125     0.54     0.00      144      -29     0.00     0.00     -106        0        0     -106
 1981 281     3    48874    -9117     0.77     0.00      193      -38     0.00     0.00     -140        1        0     -139
 1981 282     4    35700    -6148     1.00     0.00      228      -44     0.00     0.00     -162        1        0     -161
 1981 283     5    29910    -4906     1.17     0.00      258      -49     0.00     0.00     -180        2        0     -178
 1981 284     6    23331    -3516     1.36     0.00      282      -53     0.01     0.00     -193        2        0     -191
 1981 285     7    21583    -3086     1.52     0.00      303      -56     0.01     0.00     -204        3        0     -201
 1981 286     8    31886    -5484     1.44     0.00      335      -61     0.01     0.00     -224        4        0     -221
 1981 287     9    35866    -6219     1.66     0.00      371      -67     0.01     0.00     -247        5        0     -243
 1981 288    10    37191    -6453     1.84     0.00      408      -74     0.01     0.00     -271        5        0     -266
 1981 289    11    34203    -5703     2.05     0.00      442      -80     0.01     0.00     -292        6        0     -285
 1981 290    12    32012    -5172     3.13     0.00      474      -85     0.02     0.00     -311        8        0     -303
 1981 291    13    45659    -8500     3.65     0.00      520      -93     0.02     0.00     -342       10        0     -332
 1981 292    14    33957    -5891     4.19     0.00      554      -99     0.02     0.00     -364       12        0     -352
 1981 293    15    25355    -3930     4.79     0.00      579     -103     0.03     0.00     -378       14        0     -364
 1981 294    16    24847    -3680     5.02     0.00      604     -107     0.03     0.00     -392       16        0     -375
 1981 295    17    22236    -3055     5.06     0.00      626     -110     0.04     0.00     -403       18        0     -384
 1981 296    18    16632    -1945     4.94     0.00      643     -112     0.04     0.00     -410       21        0     -389
 1981 297    19    12790    -1219     4.74     0.00      656     -113     0.05     0.00     -414       23        0     -391
 1981 298    20    10201     -734     4.48     0.00      666     -114     0.05     0.00     -417       25        0     -392
 1981 299    21     7735     -367     3.81     0.00      674     -114     0.06     0.00     -418       27        0     -392
 1981 300    22     5780      -16     3.69     0.00      679     -114     0.06     0.00     -419       29        0     -390
 1981 301    23     8158     -383     3.52     0.00      688     -114     0.06     0.00     -420       30        0     -390
 1981 302    24    12515    -1070     3.32     0.00      700     -115     0.07     0.00     -424       32        0     -392
 1981 303    25    15303    -1445     3.11     0.00      715     -117     0.07     0.00     -429       33        0     -396
 1981 304    26    16754    -1586     2.89     0.00      732     -119     0.07     0.00     -435       35        0     -400
 1981 305    27    18707    -1898     2.61     0.00      751     -120     0.08     0.00     -442       36        0     -406
 1981 306    28    32844    -4891     1.70     0.00      784     -125     0.08     0.00     -460       37        0     -423
 1981 307    29    28883    -4211     1.69     0.00      813     -130     0.08     0.00     -475       37        0     -438
 1981 308    30    26773    -3891     1.82     0.00      839     -133     0.08     0.00     -490       38        0     -451
 1981 309    31    21166    -2711     1.42     0.00      861     -136     0.08     0.00     -500       39        0     -461
 1981 310    32    19161    -2336     2.04     0.00      880     -138     0.09     0.00     -508       40        0     -468
 1981 311    33    16117    -1820     2.81     0.00      896     -140     0.09     0.00     -515       41        0     -474
 1981 312    34    15022    -1594     3.68     0.00      911     -142     0.09     0.00     -521       43        0     -478
 1981 313    35    13651    -1266     3.16     0.00      924     -143     0.09     0.00     -525       44        0     -481
 1981 314    36     9847     -680     5.60     0.00      934     -144     0.10     0.00     -528       47        0     -481
 1981 315    37     7341     -289     7.21     0.00      942     -144     0.11     0.00     -529       50        0     -478
 1981 316    38     7709     -320     9.05     0.00      949     -144     0.12     0.00     -530       55        0     -475
 1981 317    39     7785     -281    10.91     0.00      957     -145     0.13     0.00     -531       60        0     -471
 1981 318    40     7098     -141    12.52     0.00      964     -145     0.14     0.00     -532       66        0     -466
 1981 319    41    10839     -664    13.58     0.00      975     -146     0.15     0.00     -534       72        0     -462
 1981 320    42    13931    -1047    14.24     0.00      989     -147     0.17     0.00     -538       79        0     -459
 1981 321    43    16932    -1391    14.56     0.00     1006     -148     0.18     0.00     -543       85        0     -458
 1981 322    44    16723    -1289    14.61     0.00     1023     -149     0.20     0.00     -548       92        0     -455
 1981 323    45    17262    -1258    14.45     0.00     1040     -151     0.21     0.00     -552       99        0     -453
 1981 324    46    14204     -852    13.98     0.00     1054     -151     0.23     0.00     -555      106        0     -450
 1981 325    47     9315     -211    13.60     0.00     1063     -152     0.24     0.00     -556      112        0     -444
 1981 326    48     4612      352    13.13     0.00     1068     -151     0.25     0.00     -555      118        0     -437
 1981 327    49     2916      563    12.58     0.00     1071     -151     0.26     0.00     -553      124        0     -429
 1981 328    50     1980      648    12.01     0.00     1073     -150     0.28     0.00     -551      130        0     -421
 1981 329    51     2462      617    11.43     0.00     1075     -149     0.29     0.00     -548      135        0     -413
 1981 330    52     5439      305    10.85     0.00     1081     -149     0.30     0.00     -547      140        0     -407
 1981 331    53     6476      211    10.30     0.00     1087     -149     0.31     0.00     -546      145        0     -401
 1981 332    54     4544      422     9.78     0.00     1092     -148     0.32     0.00     -545      149        0     -395
 1981 333    55     2569      602     9.29     0.00     1094     -148     0.33     0.00     -543      154        0     -389
 1981 334    56     1789      664     8.83     0.00     1096     -147     0.34     0.00     -540      158        0     -382
 1981 335    57     1354      586     5.29     0.00     1098     -147     0.34     0.00     -538      160        0     -378
 1981 336    58     1016      469     5.95     0.00     1099     -146     0.35     0.00     -536      163        0     -373
 1981 337    59     1163      516     7.11     0.00     1100     -146     0.36     0.00     -534      167        0     -368
 1981 338    60     1282      563     7.06     0.00     1101     -145     0.36     0.00     -532      170        0     -362
 1981 339    61     1341      570     7.02     0.00     1102     -144     0.37     0.00     -530      173        0     -357
 1981 340    62     1183      531     6.90     0.00     1104     -144     0.38     0.00     -528      176        0     -352
 1981 341    63     1677      617     6.84     0.00     1105     -143     0.38     0.00     -526      180        0     -346
 1981 342    64     4549      195     6.90     0.00     1110     -143     0.39     0.00     -525      183        0     -342
 1981 343    65     4058      281     6.90     0.00     1114     -143     0.40     0.00     -524      186        0     -338
 1981 344    66     3354      391     6.91     0.00     1117     -142     0.40     0.00     -523      189        0     -334
 1981 345    67     2051      563     6.72     0.00     1119     -142     0.41     0.00     -521      192        0     -328
 1981 346    68     1219      555     6.59     0.00     1121     -141     0.42     0.00     -519      195        0     -323
 1981 347    69      821      414     6.49     0.00     1121     -141     0.42     0.00     -517      199        0     -319
 1981 348    70      790      414     6.41     0.00     1122     -141     0.43     0.00     -516      202        0     -314
 1981 349    71      732      383     6.33     0.00     1123     -140     0.44     0.00     -514      204        0     -310
 1981 350    72      729      375     6.28     0.00     1124     -140     0.44     0.00     -513      207        0     -305
 1981 351    73      523      297     6.19     0.00     1124     -139     0.45     0.00     -512      210        0     -301
 1981 352    74      264      172     6.10     0.00     1124     -139     0.46     0.00     -511      213        0     -298
 1981 353    75      114       78     6.00     0.00     1124     -139     0.46     0.00     -511      216        0     -295
 1981 354    76       46       31     5.91     0.00     1125     -139     0.47     0.00     -511      219        0     -292
 1981 355    77       32       23     5.73     0.00     1125     -139     0.47     0.00     -511      221        0     -289
 1981 356    78       45       31     5.28     0.00     1125     -139     0.48     0.00     -511      224        0     -287
 1981 357    79      117       86     5.59     0.00     1125     -139     0.48     0.00     -510      227        0     -284
 1981 358    80      214      133     5.46     0.00     1125     -139     0.49     0.00     -510      229        0     -281
 1981 359    81      338      203     5.34     0.00     1125     -139     0.49     0.00     -509      232        0     -277
 1981 360    82      454      266     5.20     0.00     1126     -138     0.50     0.00     -508      234        0     -274
 1981 361    83      362      211     5.01     0.00     1126     -138     0.50     0.00     -507      236        0     -271
 1981 362    84      283      188     4.78     0.00     1126     -138     0.51     0.00     -507      239        0     -268
 1981 363    85      239      148     4.57     0.00     1127     -138     0.51     0.00     -506      241        0     -265
 1981 364    86      193      133     4.39     0.00     1127     -138     0.52     0.00     -506      243        0     -263
 1981 365    87      184      125     4.23     0.00     1127     -138     0.52     0.00     -505      245        0     -260
 1982 001    88      196      117     4.05     0.00     1127     -138     0.53     0.00     -505      247        0     -258
 1982 002    89      187      133     3.81     0.00     1127     -137     0.53     0.00     -504      248        0     -256
 1982 003    90      238      156     3.51     0.00     1128     -137     0.53     0.00     -504      250        0     -254
 1982 004    91      201      133     3.37     0.00     1128     -137     0.54     0.00     -503      252        0     -251
 1982 005    92      126       78     2.91     0.00     1128     -137     0.54     0.00     -503      253        0     -250
 1982 006    93      103       78     3.17     0.00     1128     -137     0.54     0.00     -503      255        0     -248
 1982 007    94       72       55     3.05     0.00     1128     -137     0.55     0.00     -502      256        0     -246
 1982 008    95       25       16     2.94     0.00     1128     -137     0.55     0.00     -502      257        0     -245
 1982 009    96       30       23     2.86     0.00     1128     -137     0.55     0.00     -502      259        0     -244
 1982 010    97       24       16     2.78     0.00     1128     -137     0.56     0.00     -502      260        0     -242
 1982 011    98        0        0     2.71     0.00     1128     -137     0.56     0.00     -502      261        0     -241
 1982 012    99        0        0     2.65     0.00     1128     -137     0.56     0.00     -502      262        0     -240
 1982 013   100        0        0     2.60     0.00     1128     -137     0.56     0.00     -502      264        0     -238
 1982 014   101        0        0     2.55     0.00     1128     -137     0.57     0.00     -502      265        0     -237
 1982 015   102        0        0     2.50     0.00     1128     -137     0.57     0.00     -502      266        0     -236
 1982 016   103        0        0     2.46     0.00     1128     -137     0.57     0.00     -502      267        0     -235
 1982 017   104        0        0     2.40     0.00     1128     -137     0.57     0.00     -502      268        0     -234
 1982 018   105        0        0     2.34     0.00     1128     -137     0.58     0.00     -502      269        0     -233
 1982 019   106       22       16     2.30     0.00     1128     -137     0.58     0.00     -502      271        0     -232
 1982 020   107       28       23     2.24     0.00     1128     -137     0.58     0.00     -502      272        0     -230
 1982 021   108       23       16     2.14     0.00     1128     -137     0.58     0.00     -502      273        0     -229
 1982 022   109       45       39     2.05     0.00     1128     -137     0.58     0.00     -502      274        0     -228
 1982 023   110       78       55     1.94     0.00     1128     -137     0.59     0.00     -502      274        0     -227
 1982 024   111       27       23     1.85     0.00     1128     -137     0.59     0.00     -502      275        0     -226
 1982 025   112        8        0     1.75     0.00     1128     -137     0.59     0.00     -502      276        0     -225
 1982 026   113       10        8     1.61     0.00     1128     -137     0.59     0.00     -501      277        0     -225
 1982 027   114       18       16     1.50     0.00     1128     -137     0.59     0.00     -501      278        0     -224
 1982 028   115       39       31     1.41     0.00     1128     -137     0.59     0.00     -501      278        0     -223
 1982 029   116      100       63     1.34     0.00     1129     -137     0.60     0.00     -501      279        0     -222
 1982 030   117      232      156     1.24     0.00     1129     -136     0.60     0.00     -501      279        0     -221
 1982 031   118      248      148     0.91     0.00     1129     -136     0.60     0.00     -500      280        0     -220
 1982 032   119      128       94     1.05     0.00     1129     -136     0.60     0.00     -500      280        0     -219
 1982 033   120       52       39     1.05     0.00     1129     -136     0.60     0.00     -499      281        0     -219
 1982 034   121       32       23     0.97     0.00     1129     -136     0.60     0.00     -499      281        0     -218
 1982 035   122        0        0     0.89     0.00     1129     -136     0.60     0.00     -499      282        0     -218
 1982 036   123        0        0     0.84     0.00     1129     -136     0.60     0.00     -499      282        0     -217
 1982 037   124        0        0     0.79     0.00     1129     -136     0.60     0.00     -499      282        0     -217
 1982 038   125        0        0     0.75     0.00     1129     -136     0.60     0.00     -499      283        0     -217
 1982 039   126        0        0     0.71     0.00     1129     -136     0.60     0.00     -499      283        0     -216
 1982 040   127        0        0     0.70     0.00     1129     -136     0.61     0.00     -499      283        0     -216
 1982 041   128        0        0     0.70     0.00     1129     -136     0.61     0.00     -499      284        0     -216
 1982 042   129        0        0     0.69     0.00     1129     -136     0.61     0.00     -499      284        0     -215
 1982 043   130        0        0     0.69     0.00     1129     -136     0.61     0.00     -499      284        0     -215
 1982 044   131        0        0     0.57     0.00     1129     -136     0.61     0.00     -499      285        0     -215
 1982 045   132        0        0     0.67     0.00     1129     -136     0.61     0.00     -499      285        0     -214
 1982 046   133        0        0     0.65     0.00     1129     -136     0.61     0.00     -499      285        0     -214
 1982 047   134        0        0     0.66     0.00     1129     -136     0.61     0.00     -499      286        0     -214
 1982 048   135       27       23     0.67     0.00     1129     -136     0.61     0.00     -499      286        0     -213
 1982 049   136       49       23     0.68     0.00     1129     -136     0.61     0.00     -499      286        0     -213
 1982 050   137      143       94     0.66     0.00     1130     -136     0.61     0.00     -499      287        0     -212
 1982 051   138      264      148     0.67     0.00     1130     -136     0.61     0.00     -498      287        0     -211
 1982 052   139     2651     -227     0.67     0.00     1132     -136     0.61     0.00     -499      287        0     -212
 1982 053   140     4452     -453     0.67     0.00     1137     -136     0.61     0.00     -501      288        0     -213
 1982 054   141     7202     -813     0.65     0.00     1144     -137     0.61     0.00     -504      288        0     -216
 1982 055   142     7933     -906     0.61     0.00     1152     -138     0.62     0.00     -507      288        0     -219
 1982 056   143     5897     -617     0.60     0.00     1158     -139     0.62     0.00     -509      288        0     -221
 1982 057   144     1868     -102     0.59     0.00     1160     -139     0.62     0.00     -510      289        0     -221
 1982 058   145       83       63     0.61     0.00     1160     -139     0.62     0.00     -510      289        0     -221
 1982 059   146       21       16     0.63     0.00     1160     -139     0.62     0.00     -509      289        0     -220
 1982 060   147        7        0     0.67     0.00     1160     -139     0.62     0.00     -509      290        0     -220
 1982 061   148       16       16     0.71     0.00     1160     -139     0.62     0.00     -509      290        0     -220
 1982 062   149       55       47     0.77     0.00     1160     -139     0.62     0.00     -509      290        0     -219
 1982 063   150       62       39     0.81     0.00     1160     -139     0.62     0.00     -509      291        0     -218
 1982 064   151       30       16     0.86     0.00     1160     -139     0.62     0.00     -509      291        0     -218
 1982 065   152        3        8     0.92     0.00     1160     -139     0.62     0.00     -509      291        0     -218
 1982 066   153        0        0     0.98     0.00     1160     -139     0.62     0.00     -509      292        0     -217
 1982 067   154        0        0     1.03     0.00     1160     -139     0.62     0.00     -509      292        0     -217
 1982 068   155        0        0     1.07     0.00     1160     -139     0.63     0.00     -509      293        0     -216
 1982 069   156        0        0     1.11     0.00     1160     -139     0.63     0.00     -509      293        0     -216
 1982 070   157        0        0     1.13     0.00     1160     -139     0.63     0.00     -509      294        0     -215
 1982 071   158       20        8     1.15     0.00     1160     -139     0.63     0.00     -509      295        0     -214
 1982 072   159     2240     -219     1.16     0.00     1162     -139     0.63     0.00     -510      295        0     -215
 1982 073   160     3536     -359     1.16     0.00     1166     -139     0.63     0.00     -511      296        0     -216
 1982 074   161     5440     -570     1.13     0.00     1171     -140     0.63     0.00     -513      296        0     -217
 1982 075   162     8773    -1406     0.89     0.00     1180     -141     0.63     0.00     -518      297        0     -222
 1982 076   163     8959    -1328     0.97     0.00     1189     -143     0.63     0.00     -523      297        0     -226
 1982 077   164     9533    -1461     1.05     0.00     1199     -144     0.64     0.00     -529      297        0     -231
 1982 078   165    10254    -1563     1.09     0.00     1209     -146     0.64     0.00     -534      298        0     -236
 1982 079   166    14196    -2211     1.11     0.00     1223     -148     0.64     0.00     -542      299        0     -244
 1982 080   167    12867    -1961     1.35     0.00     1236     -150     0.64     0.00     -550      299        0     -251
 1982 081   168     7628    -1109     1.67     0.00     1243     -151     0.64     0.00     -554      300        0     -254
 1982 082   169     3892     -578     1.97     0.00     1247     -151     0.64     0.00     -556      301        0     -255
 1982 083   170     3021     -453     2.27     0.00     1250     -152     0.64     0.00     -558      302        0     -256
 1982 084   171      297      -55     2.53     0.00     1251     -152     0.65     0.00     -558      303        0     -255
 1982 085   172        0        0     2.53     0.00     1251     -152     0.65     0.00     -558      304        0     -253
 1982 086   173        0        0     2.77     0.00     1251     -152     0.65     0.00     -558      306        0     -252
 1982 087   174       11        0     2.96     0.00     1251     -152     0.66     0.00     -558      307        0     -251
 1982 088   175        0        0     3.07     0.00     1251     -152     0.66     0.00     -558      308        0     -249
 1982 089   176      489     -109     3.13     0.00     1251     -152     0.66     0.00     -558      310        0     -248
 1982 090   177     3597     -555     3.05     0.00     1255     -153     0.66     0.00     -560      311        0     -249
 1982 091   178     5556     -750     3.06     0.00     1260     -153     0.67     0.00     -563      313        0     -250
 1982 092   179     7378     -898     3.02     0.00     1268     -154     0.67     0.00     -566      314        0     -252
 1982 093   180     9429    -1063     2.95     0.00     1277     -155     0.67     0.00     -570      316        0     -255
 1982 094   181     8205     -867     2.85     0.00     1285     -156     0.68     0.00     -573      317        0     -256
 1982 095   182     5585     -602     2.72     0.00     1291     -157     0.68     0.00     -576      318        0     -257
 1982 096   183     6292    -1023     2.30     0.00     1297     -158     0.68     0.00     -579      319        0     -260
 1982 097   184     1403     -305     2.23     0.00     1299     -158     0.68     0.00     -580      320        0     -260
 1982 098   185        0        0     2.14     0.00     1299     -158     0.69     0.00     -580      321        0     -259
 1982 099   186        0        0     2.03     0.00     1299     -158     0.69     0.00     -580      322        0     -258
 1982 100   187        0        0     1.94     0.00     1299     -158     0.69     0.00     -580      323        0     -257
 1982 101   188        0        0     1.85     0.00     1299     -158     0.69     0.00     -580      324        0     -256
 1982 102   189     1256     -258     1.75     0.00     1300     -158     0.69     0.00     -581      325        0     -257
 1982 103   190     4690     -563     1.65     0.00     1305     -159     0.70     0.00     -583      326        0     -258
 1982 104   191     6537     -617     1.55     0.00     1311     -160     0.70     0.00     -586      326        0     -259
 1982 105   192     8867     -625     1.46     0.00     1320     -160     0.70     0.00     -588      327        0     -261
 1982 106   193    10453     -508     1.38     0.00     1330     -161     0.70     0.00     -590      328        0     -262
 1982 107   194    10295     -336     1.31     0.00     1341     -161     0.70     0.00     -591      328        0     -263
 1982 108   195     7676      -78     1.24     0.00     1348     -161     0.70     0.00     -591      329        0     -263
 1982 109   196     6124      125     1.17     0.00     1355     -161     0.70     0.00     -591      329        0     -262
 1982 110   197     7540     -430     1.01     0.00     1362     -161     0.70     0.00     -592      330        0     -263
 1982 111   198     4374     -219     0.99     0.00     1366     -162     0.71     0.00     -593      330        0     -263
 1982 112   199     2521     -148     0.96     0.00     1369     -162     0.71     0.00     -594      331        0     -263
 1982 113   200     2055     -109     0.93     0.00     1371     -162     0.71     0.00     -594      331        0     -263
 1982 114   201     1737      -55     0.90     0.00     1373     -162     0.71     0.00     -594      332        0     -263
 1982 115   202     1570        8     0.87     0.00     1374     -162     0.71     0.00     -594      332        0     -262
 1982 116   203     2036       47     0.85     0.00     1376     -162     0.71     0.00     -594      332        0     -262
 1982 117   204     2180      180     0.85     0.00     1379     -162     0.71     0.00     -594      333        0     -261
 1982 118   205     2167      219     0.85     0.00     1381     -162     0.71     0.00     -593      333        0     -260
 1982 119   206     4548     -430     0.76     0.00     1385     -162     0.71     0.00     -594      334        0     -261
 1982 120   207     9463    -1727     0.67     0.00     1395     -164     0.71     0.00     -601      334        0     -267
 1982 121   208     9801    -1766     0.80     0.00     1405     -165     0.71     0.00     -607      334        0     -273
 1982 122   209     9268    -1578     0.85     0.00     1414     -167     0.71     0.00     -613      335        0     -278
 1982 123   210     9751    -1508     0.92     0.00     1424     -169     0.72     0.00     -618      335        0     -283
 1982 124   211    10555    -1367     1.03     0.00     1434     -170     0.72     0.00     -623      336        0     -288
 1982 125   212     9898     -906     1.15     0.00     1444     -171     0.72     0.00     -627      336        0     -291
 1982 126   213     9677     -773     1.21     0.00     1454     -172     0.72     0.00     -630      337        0     -293
 1982 127   214    21520    -3492     0.93     0.00     1475     -175     0.72     0.00     -642      337        0     -305
 1982 128   215    21776    -3547     1.16     0.00     1497     -179     0.72     0.00     -655      338        0     -318
 1982 129   216    17590    -2586     1.22     0.00     1515     -181     0.72     0.00     -665      338        0     -327
 1982 130   217    13963    -1820     1.30     0.00     1529     -183     0.72     0.00     -672      339        0     -333
 1982 131   218    12733    -1469     1.38     0.00     1541     -184     0.73     0.00     -677      339        0     -338
 1982 132   219    12978    -1273     1.44     0.00     1554     -186     0.73     0.00     -682      340        0     -342
 1982 133   220    22984    -3414     1.16     0.00     1577     -189     0.73     0.00     -694      341        0     -354
 1982 134   221    25182    -3852     1.45     0.00     1602     -193     0.73     0.00     -708      341        0     -367
 1982 135   222    22402    -3336     1.53     0.00     1625     -196     0.73     0.00     -721      342        0     -379
 1982 136   223    20233    -2859     1.57     0.00     1645     -199     0.73     0.00     -731      343        0     -388
 1982 137   224    20051    -2859     1.61     0.00     1665     -202     0.73     0.00     -742      344        0     -398
 1982 138   225    19330    -2664     1.66     0.00     1684     -205     0.74     0.00     -751      344        0     -407
 1982 139   226    18169    -2344     1.74     0.00     1703     -207     0.74     0.00     -760      345        0     -415
 1982 140   227    16751    -1813     1.83     0.00     1719     -209     0.74     0.00     -767      346        0     -421
 1982 141   228    15736    -1484     1.91     0.00     1735     -210     0.74     0.00     -772      347        0     -425
 1982 142   229    19780    -2469     1.85     0.00     1755     -213     0.74     0.00     -781      348        0     -433
 1982 143   230    18412    -2133     1.90     0.00     1773     -215     0.74     0.00     -789      349        0     -440
 1982 144   231    15528    -1516     1.96     0.00     1789     -216     0.75     0.00     -795      350        0     -445
 1982 145   232    13538    -1219     1.99     0.00     1802     -218     0.75     0.00     -799      351        0     -448
 1982 146   233    14832    -1539     1.77     0.00     1817     -219     0.75     0.00     -805      351        0     -453
 1982 147   234    14682    -1359     1.92     0.00     1832     -221     0.75     0.00     -810      352        0     -457
 1982 148   235    15318    -1391     1.92     0.00     1847     -222     0.75     0.00     -815      353        0     -462
 1982 149   236    15709    -1250     1.96     0.00     1863     -223     0.76     0.00     -819      354        0     -465
 1982 150   237    16698    -1406     1.92     0.00     1880     -225     0.76     0.00     -824      355        0     -470
 1982 151   238    16566    -1273     1.93     0.00     1896     -226     0.76     0.00     -829      356        0     -473
 1982 152   239    16001    -1094     1.76     0.00     1912     -227     0.76     0.00     -833      357        0     -476
 1982 153   240    14505     -938     1.91     0.00     1927     -228     0.76     0.00     -837      358        0     -479
 1982 154   241    12564     -813     1.92     0.00     1939     -229     0.77     0.00     -840      358        0     -481
 1982 155   242    11234     -742     1.95     0.00     1950     -230     0.77     0.00     -842      359        0     -483
 1982 156   243    10603     -727     2.00     0.00     1961     -230     0.77     0.00     -845      360        0     -485
 1982 157   244     9447     -422     2.06     0.00     1971     -231     0.77     0.00     -847      361        0     -485
 1982 158   245    10376     -180     2.18     0.00     1981     -231     0.77     0.00     -847      362        0     -485
 1982 159   246    13688     -766     2.18     0.00     1995     -232     0.78     0.00     -850      363        0     -487
 1982 160   247    14186     -438     2.30     0.00     2009     -232     0.78     0.00     -852      364        0     -487
 1982 161   248    16322     -734     2.33     0.00     2025     -233     0.78     0.00     -854      366        0     -489
 1982 162   249    14209     -227     2.47     0.00     2039     -233     0.78     0.00     -855      367        0     -488
 1982 163   250    12024       -8     2.58     0.00     2051     -233     0.79     0.00     -855      368        0     -487
 1982 164   251    10223      375     2.80     0.00     2062     -233     0.79     0.00     -854      369        0     -485
 1982 165   252     8465      586     2.96     0.00     2070     -232     0.79     0.00     -852      371        0     -481
 1982 166   253     7928      727     3.02     0.00     2078     -231     0.79     0.00     -849      372        0     -477
 1982 167   254    13930     -398     2.60     0.00     2092     -232     0.80     0.00     -850      373        0     -477
 1982 168   255    12531       31     2.72     0.00     2104     -232     0.80     0.00     -850      374        0     -476
 1982 169   256    11202      375     2.86     0.00     2116     -231     0.80     0.00     -849      376        0     -473
 1982 170   257    10155      625     2.95     0.00     2126     -231     0.81     0.00     -847      377        0     -469
 1982 171   258     8270      875     3.06     0.00     2134     -230     0.81     0.00     -843      379        0     -465
 1982 172   259     7369     1055     3.06     0.00     2141     -229     0.81     0.00     -840      380        0     -460
 1982 173   260     6987     1250     3.02     0.00     2148     -228     0.81     0.00     -835      381        0     -454
 1982 174   261    12280      109     1.99     0.00     2161     -227     0.82     0.00     -835      382        0     -452

*DSSAT Cropping System Model Ver. 4.8.5.000 -release  SEP 11, 2025 22:39:39

*RUN   3        : DRYLAND  - 180 KG N/HA SP CSCER048 KSAS8101    3
 MODEL          : CSCER048 - Wheat
 EXPERIMENT     : KSAS8101 WH N RESPONSE,KANSAS STATE  3FE(N)*2IR  (DSSAT3)
 DATA PATH      :
 TREATMENT  3   : DRYLAND  - 180 KG N/HA SP CSCER048
  
!               |---------- Daily (g/ha) ----------|------- Cumulative (kg/ha) --------|---- Cum CO2-equiv kg[CO2eq]/ha ---|
!               Soil CO2  Net CO2      N2O      CH4 Soil CO2  Net CO2      N2O      CH4  Net CO2      N2O      CH4    Total
!                g[C]/ha  g[C]/ha  g[N]/ha  g[C]/ha kg[C]/ha kg[C]/ha kg[N]/ha kg[C]/ha    CO2eq    CO2eq    CO2eq    CO2eq
@YEAR DOY   DAS   CO2GED   CO2END   N2OGED   CH4GED    CO2EC   CO2ENC    N2OEC    CH4EC    CCEQC    NCEQC    MCEQC    TCEQC
 1981 279     1    81683   -16773     0.29     0.00       82      -17     0.00     0.00      -62        0        0      -61
 1981 280     2    62008   -12125     0.54     0.00      144      -29     0.00     0.00     -106        0        0     -106
 1981 281     3    48874    -9117     0.77     0.00      193      -38     0.00     0.00     -140        1        0     -139
 1981 282     4    35700    -6148     1.00     0.00      228      -44     0.00     0.00     -162        1        0     -161
 1981 283     5    29910    -4906     1.17     0.00      258      -49     0.00     0.00     -180        2        0     -178
 1981 284     6    23331    -3516     1.36     0.00      282      -53     0.01     0.00     -193        2        0     -191
 1981 285     7    21583    -3086     1.52     0.00      303      -56     0.01     0.00     -204        3        0     -201
 1981 286     8    31886    -5484     1.44     0.00      335      -61     0.01     0.00     -224        4        0     -221
 1981 287     9    35866    -6219     1.66     0.00      371      -67     0.01     0.00     -247        5        0     -243
 1981 288    10    37191    -6453     1.84     0.00      408      -74     0.01     0.00     -271        5        0     -266
 1981 289    11    34203    -5703     2.05     0.00      442      -80     0.01     0.00     -292        6        0     -285
 1981 290    12    32012    -5172     3.58     0.00      474      -85     0.02     0.00     -311        8        0     -303
 1981 291    13    45659    -8500     4.35     0.00      520      -93     0.02     0.00     -342       10        0     -332
 1981 292    14    33957    -5891     5.08     0.00      554      -99     0.03     0.00     -364       12        0     -351
 1981 293    15    25355    -3930     5.86     0.00      579     -103     0.03     0.00     -378       15        0     -363
 1981 294    16    24847    -3680     6.16     0.00      604     -107     0.04     0.00     -392       18        0     -373
 1981 295    17    22236    -3055     6.20     0.00      626     -110     0.04     0.00     -403       21        0     -382
 1981 296    18    16632    -1945     6.04     0.00      643     -112     0.05     0.00     -410       24        0     -386
 1981 297    19    12790    -1219     5.75     0.00      656     -113     0.06     0.00     -414       27        0     -388
 1981 298    20    10201     -734     5.40     0.00      666     -114     0.06     0.00     -417       29        0     -388
 1981 299    21     7735     -367     4.56     0.00      674     -114     0.07     0.00     -418       31        0     -387
 1981 300    22     5780      -16     4.39     0.00      679     -114     0.07     0.00     -419       33        0     -385
 1981 301    23     8158     -383     4.16     0.00      688     -114     0.08     0.00     -420       35        0     -385
 1981 302    24    12515    -1070     3.90     0.00      700     -115     0.08     0.00     -424       37        0     -387
 1981 303    25    15303    -1445     3.63     0.00      715     -117     0.08     0.00     -429       39        0     -390
 1981 304    26    16754    -1586     3.36     0.00      732     -119     0.09     0.00     -435       40        0     -395
 1981 305    27    18707    -1898     3.02     0.00      751     -120     0.09     0.00     -442       42        0     -400
 1981 306    28    33125    -4969     1.96     0.00      784     -125     0.09     0.00     -460       43        0     -418
 1981 307    29    29106    -4258     1.93     0.00      813     -130     0.09     0.00     -476       44        0     -432
 1981 308    30    26961    -3945     2.07     0.00      840     -134     0.10     0.00     -490       45        0     -446
 1981 309    31    21260    -2734     1.61     0.00      861     -136     0.10     0.00     -500       45        0     -455
 1981 310    32    19236    -2352     2.54     0.00      881     -139     0.10     0.00     -509       46        0     -463
 1981 311    33    16163    -1828     3.76     0.00      897     -141     0.10     0.00     -516       48        0     -467
 1981 312    34    15057    -1602     5.12     0.00      912     -142     0.11     0.00     -522       51        0     -471
 1981 313    35    13674    -1273     4.49     0.00      925     -143     0.11     0.00     -526       53        0     -474
 1981 314    36     9862     -680     8.09     0.00      935     -144     0.12     0.00     -529       56        0     -472
 1981 315    37     7348     -289    10.55     0.00      943     -144     0.13     0.00     -530       61        0     -468
 1981 316    38     7714     -328    13.32     0.00      950     -145     0.14     0.00     -531       68        0     -463
 1981 317    39     7790     -281    16.08     0.00      958     -145     0.16     0.00     -532       75        0     -457
 1981 318    40     7101     -141    18.41     0.00      965     -145     0.18     0.00     -533       84        0     -449
 1981 319    41    10845     -664    19.90     0.00      976     -146     0.20     0.00     -535       93        0     -442
 1981 320    42    13939    -1055    20.76     0.00      990     -147     0.22     0.00     -539      103        0     -436
 1981 321    43    16942    -1391    21.10     0.00     1007     -148     0.24     0.00     -544      113        0     -431
 1981 322    44    16732    -1281    21.03     0.00     1024     -149     0.26     0.00     -549      123        0     -426
 1981 323    45    17271    -1273    20.66     0.00     1041     -151     0.28     0.00     -553      132        0     -421
 1981 324    46    14214     -852    19.83     0.00     1055     -152     0.30     0.00     -556      142        0     -415
 1981 325    47     9320     -203    19.14     0.00     1065     -152     0.32     0.00     -557      150        0     -407
 1981 326    48     4613      352    18.31     0.00     1069     -151     0.34     0.00     -556      159        0     -397
 1981 327    49     2916      563    17.41     0.00     1072     -151     0.36     0.00     -554      167        0     -387
 1981 328    50     1980      648    16.46     0.00     1074     -150     0.37     0.00     -551      175        0     -377
 1981 329    51     2462      609    15.51     0.00     1077     -150     0.39     0.00     -549      182        0     -367
 1981 330    52     5441      305    14.59     0.00     1082     -149     0.40     0.00     -548      189        0     -359
 1981 331    53     6477      211    13.71     0.00     1088     -149     0.42     0.00     -547      195        0     -352
 1981 332    54     4545      422    12.87     0.00     1093     -149     0.43     0.00     -546      201        0     -344
 1981 333    55     2569      602    12.10     0.00     1096     -148     0.44     0.00     -544      207        0     -336
 1981 334    56     1789      664    11.39     0.00     1097     -147     0.45     0.00     -541      212        0     -329
 1981 335    57     1354      586     6.76     0.00     1099     -147     0.46     0.00     -539      216        0     -323
 1981 336    58     1016      469     7.53     0.00     1100     -146     0.47     0.00     -537      219        0     -318
 1981 337    59     1164      516     8.93     0.00     1101     -146     0.48     0.00     -535      223        0     -312
 1981 338    60     1282      555     8.79     0.00     1102     -145     0.49     0.00     -533      227        0     -306
 1981 339    61     1341      578     8.67     0.00     1103     -145     0.49     0.00     -531      231        0     -300
 1981 340    62     1183      539     8.47     0.00     1105     -144     0.50     0.00     -529      235        0     -294
 1981 341    63     1677      609     8.33     0.00     1106     -144     0.51     0.00     -527      239        0     -288
 1981 342    64     4552      195     8.37     0.00     1111     -143     0.52     0.00     -526      243        0     -283
 1981 343    65     4061      289     8.34     0.00     1115     -143     0.53     0.00     -525      247        0     -278
 1981 344    66     3356      383     8.33     0.00     1118     -143     0.54     0.00     -524      251        0     -273
 1981 345    67     2051      563     8.08     0.00     1120     -142     0.54     0.00     -522      255        0     -267
 1981 346    68     1219      555     7.92     0.00     1122     -142     0.55     0.00     -520      259        0     -261
 1981 347    69      822      414     7.79     0.00     1122     -141     0.56     0.00     -518      262        0     -256
 1981 348    70      790      422     7.69     0.00     1123     -141     0.57     0.00     -517      266        0     -251
 1981 349    71      732      367     7.59     0.00     1124     -140     0.58     0.00     -515      269        0     -246
 1981 350    72      729      391     7.51     0.00     1125     -140     0.58     0.00     -514      273        0     -241
 1981 351    73      523      289     7.39     0.00     1125     -140     0.59     0.00     -513      276        0     -236
 1981 352    74      264      172     7.27     0.00     1125     -140     0.60     0.00     -512      280        0     -232
 1981 353    75      114       78     7.14     0.00     1126     -139     0.60     0.00     -512      283        0     -229
 1981 354    76       46       31     7.00     0.00     1126     -139     0.61     0.00     -512      286        0     -225
 1981 355    77       32       23     6.76     0.00     1126     -139     0.62     0.00     -512      290        0     -222
 1981 356    78       45       31     6.21     0.00     1126     -139     0.62     0.00     -512      292        0     -219
 1981 357    79      117       78     6.56     0.00     1126     -139     0.63     0.00     -511      296        0     -216
 1981 358    80      214      141     6.37     0.00     1126     -139     0.64     0.00     -511      298        0     -212
 1981 359    81      338      203     6.20     0.00     1126     -139     0.64     0.00     -510      301        0     -209
 1981 360    82      454      266     6.01     0.00     1127     -139     0.65     0.00     -509      304        0     -205
 1981 361    83      362      219     5.76     0.00     1127     -138     0.66     0.00     -508      307        0     -201
 1981 362    84      283      180     5.47     0.00     1127     -138     0.66     0.00     -508      309        0     -198
 1981 363    85      239      156     5.20     0.00     1128     -138     0.67     0.00     -507      312        0     -195
 1981 364    86      193      117     4.97     0.00     1128     -138     0.67     0.00     -507      314        0     -192
 1981 365    87      184      133     4.76     0.00     1128     -138     0.68     0.00     -506      316        0     -190
 1982 001    88      196      117     4.54     0.00     1128     -138     0.68     0.00     -506      319        0     -187
 1982 002    89      187      133     4.25     0.00     1128     -138     0.68     0.00     -505      321        0     -185
 1982 003    90      238      156     3.89     0.00     1129     -137     0.69     0.00     -505      322        0     -182
 1982 004    91      201      141     3.72     0.00     1129     -137     0.69     0.00     -504      324        0     -180
 1982 005    92      126       70     3.19     0.00     1129     -137     0.70     0.00     -504      326        0     -178
 1982 006    93      103       78     3.47     0.00     1129     -137     0.70     0.00     -504      327        0     -176
 1982 007    94       72       55     3.32     0.00     1129     -137     0.70     0.00     -503      329        0     -175
 1982 008    95       25       16     3.19     0.00     1129     -137     0.71     0.00     -503      330        0     -173
 1982 009    96       30       23     3.09     0.00     1129     -137     0.71     0.00     -503      332        0     -171
 1982 010    97       24       16     2.99     0.00     1129     -137     0.71     0.00     -503      333        0     -170
 1982 011    98        0        0     2.91     0.00     1129     -137     0.71     0.00     -503      335        0     -169
 1982 012    99        0        0     2.84     0.00     1129     -137     0.72     0.00     -503      336        0     -167
 1982 013   100        0        0     2.78     0.00     1129     -137     0.72     0.00     -503      337        0     -166
 1982 014   101        0        0     2.72     0.00     1129     -137     0.72     0.00     -503      338        0     -165
 1982 015   102        0        0     2.66     0.00     1129     -137     0.73     0.00     -503      340        0     -163
[...]
 1982 014   101        0        0     2.72     0.00     1129     -137     0.72     0.00     -503      338        0     -165
 1982 015   102        0        0     2.66     0.00     1129     -137     0.73     0.00     -503      340        0     -163
 1982 016   103        0        0     2.60     0.00     1129     -137     0.73     0.00     -503      341        0     -162
 1982 017   104        0        0     2.54     0.00     1129     -137     0.73     0.00     -503      342        0     -161
 1982 018   105        0        0     2.48     0.00     1129     -137     0.73     0.00     -503      343        0     -160
 1982 019   106       22       16     2.43     0.00     1129     -137     0.74     0.00     -503      344        0     -159
 1982 020   107       28       23     2.36     0.00     1129     -137     0.74     0.00     -503      345        0     -158
 1982 021   108       23       16     2.26     0.00     1129     -137     0.74     0.00     -503      347        0     -156
 1982 022   109       45       39     2.15     0.00     1129     -137     0.74     0.00     -503      348        0     -155
 1982 023   110       78       55     2.03     0.00     1129     -137     0.74     0.00     -503      348        0     -154
 1982 024   111       27       23     1.94     0.00     1129     -137     0.75     0.00     -503      349        0     -153
 1982 025   112        8        0     1.83     0.00     1129     -137     0.75     0.00     -503      350        0     -152
 1982 026   113       10        8     1.69     0.00     1130     -137     0.75     0.00     -502      351        0     -151
 1982 027   114       18       16     1.57     0.00     1130     -137     0.75     0.00     -502      352        0     -151
 1982 028   115       39       31     1.48     0.00     1130     -137     0.75     0.00     -502      352        0     -150
 1982 029   116      100       63     1.40     0.00     1130     -137     0.75     0.00     -502      353        0     -149
 1982 030   117      232      148     1.30     0.00     1130     -137     0.76     0.00     -502      354        0     -148
 1982 031   118      249      164     0.95     0.00     1130     -136     0.76     0.00     -501      354        0     -147
 1982 032   119      128       86     1.09     0.00     1130     -136     0.76     0.00     -501      355        0     -146
 1982 033   120       52       39     1.09     0.00     1130     -136     0.76     0.00     -500      355        0     -145
 1982 034   121       32       23     1.00     0.00     1130     -136     0.76     0.00     -500      356        0     -145
 1982 035   122        0        0     0.93     0.00     1130     -136     0.76     0.00     -500      356        0     -144
 1982 036   123        0        0     0.87     0.00     1130     -136     0.76     0.00     -500      357        0     -144
 1982 037   124        0        0     0.82     0.00     1130     -136     0.76     0.00     -500      357        0     -143
 1982 038   125        0        0     0.78     0.00     1130     -136     0.76     0.00     -500      357        0     -143
 1982 039   126        0        0     0.73     0.00     1130     -136     0.76     0.00     -500      358        0     -143
 1982 040   127        0        0     0.72     0.00     1130     -136     0.76     0.00     -500      358        0     -142
 1982 041   128        0        0     0.72     0.00     1130     -136     0.77     0.00     -500      358        0     -142
 1982 042   129        0        0     0.71     0.00     1130     -136     0.77     0.00     -500      359        0     -142
 1982 043   130        0        0     0.71     0.00     1130     -136     0.77     0.00     -500      359        0     -141
 1982 044   131        0        0     0.58     0.00     1130     -136     0.77     0.00     -500      359        0     -141
 1982 045   132        0        0     0.69     0.00     1130     -136     0.77     0.00     -500      360        0     -141
 1982 046   133        0        0     0.67     0.00     1130     -136     0.77     0.00     -500      360        0     -141
 1982 047   134        0        0     0.68     0.00     1130     -136     0.77     0.00     -500      360        0     -140
 1982 048   135       27       23     0.69     0.00     1130     -136     0.77     0.00     -500      360        0     -140
 1982 049   136       49       23     0.70     0.00     1130     -136     0.77     0.00     -500      361        0     -139
 1982 050   137      143       94     0.68     0.00     1131     -136     0.77     0.00     -500      361        0     -139
 1982 051   138      264      156     0.69     0.00     1131     -136     0.77     0.00     -499      361        0     -138
 1982 052   139     2650     -234     0.69     0.00     1133     -136     0.77     0.00     -500      362        0     -138
 1982 053   140     4452     -453     0.69     0.00     1138     -137     0.77     0.00     -502      362        0     -140
 1982 054   141     7202     -805     0.67     0.00     1145     -138     0.77     0.00     -505      362        0     -142
 1982 055   142     7933     -914     0.63     0.00     1153     -138     0.77     0.00     -508      363        0     -145
 1982 056   143     5898     -617     0.62     0.00     1159     -139     0.78     0.00     -510      363        0     -147
 1982 057   144     1897     -109     1.28     0.00     1161     -139     0.78     0.00     -511      364        0     -147
 1982 058   145       83       63     1.76     0.00     1161     -139     0.78     0.00     -511      364        0     -146
 1982 059   146       21       16     2.11     0.00     1161     -139     0.78     0.00     -511      365        0     -145
 1982 060   147        7        0     2.37     0.00     1161     -139     0.78     0.00     -511      367        0     -144
 1982 061   148       16       16     2.60     0.00     1161     -139     0.79     0.00     -510      368        0     -143
 1982 062   149       55       39     2.82     0.00     1161     -139     0.79     0.00     -510      369        0     -141
 1982 063   150       62       47     2.98     0.00     1161     -139     0.79     0.00     -510      370        0     -140
 1982 064   151       30       16     3.09     0.00     1161     -139     0.79     0.00     -510      372        0     -138
 1982 065   152        3        0     3.14     0.00     1161     -139     0.80     0.00     -510      373        0     -137
 1982 066   153        0        0     3.14     0.00     1161     -139     0.80     0.00     -510      375        0     -135
 1982 067   154        0        0     3.08     0.00     1161     -139     0.80     0.00     -510      376        0     -134
 1982 068   155        0        0     3.00     0.00     1161     -139     0.81     0.00     -510      378        0     -132
 1982 069   156        0        0     2.93     0.00     1161     -139     0.81     0.00     -510      379        0     -131
 1982 070   157        0        0     2.87     0.00     1161     -139     0.81     0.00     -510      380        0     -130
 1982 071   158       20       16     2.84     0.00     1161     -139     0.82     0.00     -510      382        0     -128
 1982 072   159     2269     -227     2.84     0.00     1163     -139     0.82     0.00     -511      383        0     -128
 1982 073   160     3578     -367     2.83     0.00     1167     -140     0.82     0.00     -512      384        0     -128
 1982 074   161     5520     -594     2.77     0.00     1173     -140     0.82     0.00     -514      386        0     -129
 1982 075   162     9142    -1500     2.11     0.00     1182     -142     0.83     0.00     -520      387        0     -133
 1982 076   163     9275    -1414     2.31     0.00     1191     -143     0.83     0.00     -525      388        0     -137
 1982 077   164     9748    -1508     2.42     0.00     1201     -145     0.83     0.00     -531      389        0     -142
 1982 078   165    10504    -1617     2.42     0.00     1211     -146     0.83     0.00     -537      390        0     -147
 1982 079   166    14685    -2336     2.72     0.00     1226     -149     0.84     0.00     -545      391        0     -154
 1982 080   167    13150    -2031     3.81     0.00     1239     -151     0.84     0.00     -553      393        0     -159
 1982 081   168     7744    -1141     5.21     0.00     1247     -152     0.84     0.00     -557      396        0     -161
 1982 082   169     3944     -594     6.47     0.00     1251     -152     0.85     0.00     -559      399        0     -160
 1982 083   170     3058     -461     7.54     0.00     1254     -153     0.86     0.00     -561      402        0     -159
 1982 084   171      303      -55     8.35     0.00     1254     -153     0.87     0.00     -561      406        0     -155
 1982 085   172        0        0     8.19     0.00     1254     -153     0.88     0.00     -561      410        0     -151
 1982 086   173        0        0     8.75     0.00     1254     -153     0.88     0.00     -561      414        0     -147
 1982 087   174       11       -8     9.03     0.00     1254     -153     0.89     0.00     -561      418        0     -143
 1982 088   175        0        0     9.07     0.00     1254     -153     0.90     0.00     -561      422        0     -138
 1982 089   176      497     -109     8.92     0.00     1255     -153     0.91     0.00     -561      427        0     -135
 1982 090   177     3633     -563     8.37     0.00     1258     -153     0.92     0.00     -563      430        0     -133
 1982 091   178     5576     -758     8.09     0.00     1264     -154     0.93     0.00     -566      434        0     -132
 1982 092   179     7350     -891     7.71     0.00     1271     -155     0.94     0.00     -569      438        0     -132
 1982 093   180     9318    -1039     7.26     0.00     1280     -156     0.94     0.00     -573      441        0     -132
 1982 094   181     8021     -820     6.76     0.00     1288     -157     0.95     0.00     -576      444        0     -132
 1982 095   182     5405     -570     6.24     0.00     1294     -158     0.96     0.00     -578      447        0     -131
 1982 096   183     6263    -1016     5.06     0.00     1300     -159     0.96     0.00     -582      450        0     -132
 1982 097   184     1773     -391     4.52     0.00     1302     -159     0.97     0.00     -583      452        0     -132
 1982 098   185        0        0     4.17     0.00     1302     -159     0.97     0.00     -583      454        0     -130
 1982 099   186        0        0     3.88     0.00     1302     -159     0.97     0.00     -583      456        0     -128
 1982 100   187        0        0     3.66     0.00     1302     -159     0.98     0.00     -583      457        0     -126
 1982 101   188        0        0     3.57     0.00     1302     -159     0.98     0.00     -583      459        0     -124
 1982 102   189     1425     -289     3.30     0.00     1303     -159     0.98     0.00     -585      461        0     -124
 1982 103   190     5214     -656     3.00     0.00     1309     -160     0.99     0.00     -587      462        0     -125
 1982 104   191     7089     -688     2.72     0.00     1316     -161     0.99     0.00     -589      463        0     -126
 1982 105   192     9419     -664     2.46     0.00     1325     -161     0.99     0.00     -592      464        0     -128
 1982 106   193    11313     -570     2.22     0.00     1336     -162     0.99     0.00     -594      465        0     -129
 1982 107   194    11482     -484     2.02     0.00     1348     -162     1.00     0.00     -596      466        0     -129
 1982 108   195     8852     -227     1.84     0.00     1357     -163     1.00     0.00     -597      467        0     -129
 1982 109   196     7392      -63     1.69     0.00     1364     -163     1.00     0.00     -597      468        0     -129
 1982 110   197     8882     -633     1.43     0.00     1373     -163     1.00     0.00     -599      469        0     -130
 1982 111   198    12931    -2125     1.21     0.00     1386     -165     1.00     0.00     -607      469        0     -138
 1982 112   199     8631    -1461     1.20     0.00     1395     -167     1.00     0.00     -612      470        0     -142
 1982 113   200     7014    -1133     1.22     0.00     1402     -168     1.00     0.00     -616      470        0     -146
 1982 114   201     6178     -953     1.27     0.00     1408     -169     1.01     0.00     -620      471        0     -149
 1982 115   202     5628     -797     1.36     0.00     1413     -170     1.01     0.00     -623      472        0     -151
 1982 116   203     7024     -898     1.44     0.00     1420     -171     1.01     0.00     -626      472        0     -154
 1982 117   204     7265     -695     1.63     0.00     1428     -171     1.01     0.00     -629      473        0     -156
 1982 118   205    12360    -1844     1.20     0.00     1440     -173     1.01     0.00     -635      474        0     -162
 1982 119   206    11121    -1602     1.32     0.00     1451     -175     1.01     0.00     -641      474        0     -167
 1982 120   207     9361    -1414     1.54     0.00     1461     -176     1.01     0.00     -647      475        0     -172
 1982 121   208    10863    -1750     2.03     0.00     1471     -178     1.02     0.00     -653      476        0     -177
 1982 122   209    11252    -1781     2.30     0.00     1483     -180     1.02     0.00     -660      477        0     -183
 1982 123   210    12719    -1859     2.62     0.00     1495     -182     1.02     0.00     -666      478        0     -188
 1982 124   211    15357    -1992     2.99     0.00     1511     -184     1.02     0.00     -674      480        0     -194
 1982 125   212    16966    -1844     3.45     0.00     1528     -185     1.03     0.00     -680      481        0     -199
 1982 126   213    17382    -1805     3.87     0.00     1545     -187     1.03     0.00     -687      483        0     -204
 1982 127   214    19972    -2625     3.40     0.00     1565     -190     1.04     0.00     -697      485        0     -212
 1982 128   215    20660    -2859     4.44     0.00     1586     -193     1.04     0.00     -707      487        0     -220
 1982 129   216    18468    -2383     4.89     0.00     1604     -195     1.04     0.00     -716      489        0     -227
 1982 130   217    15678    -1789     5.34     0.00     1620     -197     1.05     0.00     -722      491        0     -231
 1982 131   218    15272    -1539     5.77     0.00     1635     -198     1.06     0.00     -728      494        0     -234
 1982 132   219    16807    -1516     6.12     0.00     1652     -200     1.06     0.00     -734      497        0     -237
 1982 133   220    21357    -2430     5.20     0.00     1673     -202     1.07     0.00     -743      499        0     -243
 1982 134   221    23546    -2930     6.45     0.00     1697     -205     1.07     0.00     -753      502        0     -251
 1982 135   222    21559    -2625     6.69     0.00     1718     -208     1.08     0.00     -763      506        0     -257
 1982 136   223    19054    -2195     6.69     0.00     1737     -210     1.09     0.00     -771      509        0     -262
 1982 137   224    18295    -2086     6.40     0.00     1756     -212     1.09     0.00     -779      512        0     -267
 1982 138   225    17479    -1867     6.45     0.00     1773     -214     1.10     0.00     -786      515        0     -271
 1982 139   226    17766    -1914     6.94     0.00     1791     -216     1.11     0.00     -793      518        0     -275
 1982 140   227    17030    -1500     6.96     0.00     1808     -217     1.11     0.00     -798      521        0     -277
 1982 141   228    16395    -1234     6.92     0.00     1824     -219     1.12     0.00     -803      525        0     -278
 1982 142   229    17964    -1672     6.30     0.00     1842     -220     1.13     0.00     -809      527        0     -281
 1982 143   230    17485    -1633     6.52     0.00     1860     -222     1.13     0.00     -815      531        0     -284
 1982 144   231    15220    -1164     6.37     0.00     1875     -223     1.14     0.00     -819      534        0     -286
 1982 145   232    13393     -922     6.18     0.00     1888     -224     1.15     0.00     -822      536        0     -286
 1982 146   233    13493    -1000     5.17     0.00     1902     -225     1.15     0.00     -826      539        0     -287
 1982 147   234    13582    -1047     5.59     0.00     1916     -226     1.16     0.00     -830      541        0     -288
 1982 148   235    14049    -1008     5.32     0.00     1930     -227     1.16     0.00     -834      544        0     -290
 1982 149   236    14615     -961     5.17     0.00     1944     -228     1.17     0.00     -837      546        0     -291
 1982 150   237    15317    -1039     4.90     0.00     1960     -229     1.17     0.00     -841      549        0     -292
 1982 151   238    15289     -953     4.74     0.00     1975     -230     1.18     0.00     -844      551        0     -294
 1982 152   239    14359     -680     4.07     0.00     1989     -231     1.18     0.00     -847      553        0     -294
 1982 153   240    13418     -664     4.40     0.00     2003     -231     1.19     0.00     -849      555        0     -295
 1982 154   241    11665     -578     4.25     0.00     2014     -232     1.19     0.00     -851      557        0     -295
 1982 155   242    10424     -539     4.12     0.00     2025     -233     1.19     0.00     -853      559        0     -295
 1982 156   243     9863     -531     4.02     0.00     2035     -233     1.20     0.00     -855      561        0     -295
 1982 157   244     8916     -305     3.93     0.00     2043     -233     1.20     0.00     -857      562        0     -294
 1982 158   245     9974      -55     3.89     0.00     2053     -233     1.21     0.00     -857      564        0     -292
 1982 159   246    12495     -469     3.74     0.00     2066     -234     1.21     0.00     -858      566        0     -292
 1982 160   247    13351     -211     3.74     0.00     2079     -234     1.21     0.00     -859      568        0     -291
 1982 161   248    15094     -430     3.65     0.00     2094     -235     1.22     0.00     -861      569        0     -291
 1982 162   249    13405       -8     3.65     0.00     2108     -235     1.22     0.00     -861      571        0     -290
 1982 163   250    11405      156     3.64     0.00     2119     -234     1.22     0.00     -860      573        0     -287
 1982 164   251    10044      445     3.69     0.00     2129     -234     1.23     0.00     -859      575        0     -284
 1982 165   252     8413      625     3.73     0.00     2138     -233     1.23     0.00     -856      576        0     -280
 1982 166   253     7943      758     3.66     0.00     2146     -233     1.23     0.00     -854      578        0     -275
 1982 167   254    12474      -31     3.18     0.00     2158     -233     1.24     0.00     -854      580        0     -274
 1982 168   255    11514      297     3.18     0.00     2170     -232     1.24     0.00     -853      581        0     -272
 1982 169   256    10377      578     3.18     0.00     2180     -232     1.24     0.00     -850      583        0     -268
 1982 170   257     9523      797     3.13     0.00     2189     -231     1.25     0.00     -848      584        0     -264
 1982 171   258     7628     1031     3.17     0.00     2197     -230     1.25     0.00     -844      586        0     -258
 1982 172   259     6768     1195     3.05     0.00     2204     -229     1.25     0.00     -839      587        0     -252
 1982 173   260     6400     1383     2.89     0.00     2210     -227     1.26     0.00     -834      588        0     -246
 1982 174   261    11205      359     1.83     0.00     2221     -227     1.26     0.00     -833      589        0     -244
