*SIMULATION OVERVIEW FILE
  

*DSSAT Cropping System Model Ver. 4.8.5.000 -release  SEP 11, 2025 22:39:39

*RUN   1        : DRYLAND  - 0 KG N/HA      CSCER048 KSAS8101    1
 MODEL          : CSCER048 - Wheat
 EXPERIMENT     : KSAS8101 WH N RESPONSE,KANSAS STATE  3FE(N)*2IR  (DSSAT3)
 DATA PATH      :
 TREATMENT  1   : DRYLAND  - 0 KG N/HA      CSCER048


 CROP           : Wheat            CULTIVAR : NEWTON           ECOTYPE :USWH01
 STARTING DATE  : OCT  6 1981
 PLANTING DATE  : OCT 16 1981      PLANTS/m2 :   162.0    ROW SPACING :  16.cm
 WEATHER        : KSAS   1981
 SOIL           : IBWH980018     TEXTURE : -99   - Haynie Silt Loam
 SOIL INIT COND : DEPTH:180cm EXTR. H2O:149.8mm  NO3:116.2kg/ha  NH4: 60.5kg/ha
 WATER BALANCE  : IRRIGATE ON REPORTED DATE(S)
 IRRIGATION     :        0 mm IN     0 APPLICATIONS
 NITROGEN BAL.  : SOIL-N & N-UPTAKE SIMULATION; NO N-FIXATION
 N-FERTILIZER   :        0 kg/ha IN     0 APPLICATIONS
 RESIDUE/MANURE : INITIAL :  6500 kg/ha ;       0 kg/ha IN     0 APPLICATIONS
 ENVIRONM. OPT. : DAYL=    0.00  SRAD=    0.00  TMAX=    0.00  TMIN=    0.00
                  RAIN=    0.00  CO2 =    0.00  DEW =    0.00  WIND=    0.00
 SIMULATION OPT : WATER   :Y  NITROGEN:Y  N-FIX:N  PHOSPH :N  PESTS  :N
                  PHOTO   :C  ET      :R  INFIL:S  HYDROL :R  SOM    :G
                  CO2 340ppm  NSWIT   :1  EVAP :R  SOIL   :2  STEMP  :D
 MANAGEMENT OPT : PLANTING:R  IRRIG   :R  FERT :R  RESIDUE:N  HARVEST:M
                  WEATHER :M  TILLAGE :N

*SUMMARY OF SOIL AND GENETIC INPUT PARAMETERS

   SOIL LOWER UPPER   SAT  EXTR  INIT   ROOT   BULK     pH    NO3    NH4    ORG
  DEPTH LIMIT LIMIT    SW    SW    SW   DIST   DENS                          C
   cm   cm3/cm3    cm3/cm3    cm3/cm3         g/cm3         ugN/g  ugN/g     %
-------------------------------------------------------------------------------
  0-  5 0.072 0.225 0.275 0.153 0.205   1.00   1.15   7.00   9.80   3.40   0.61
  5- 15 0.072 0.225 0.275 0.153 0.205   1.00   1.15   7.00   9.80   3.40   0.61
 15- 30 0.070 0.240 0.290 0.170 0.170   0.70   1.16   7.00   7.30   3.20   0.61
 30- 45 0.040 0.154 0.194 0.114 0.092   0.20   1.21   7.00   5.10   2.50   0.59
 45- 60 0.040 0.154 0.194 0.114 0.092   0.20   1.21   7.00   5.10   2.50   0.59
 60- 90 0.032 0.091 0.141 0.059 0.065   0.05   1.23   7.00   4.70   2.20   0.29
 90-120 0.032 0.087 0.137 0.055 0.066   0.03   1.31   7.00   4.30   2.70   0.24
120-150 0.032 0.087 0.137 0.055 0.066   0.01   1.31   7.00   4.30   2.70   0.20
150-180 0.032 0.087 0.137 0.055 0.066   0.01   1.31   7.00   4.30   2.70   0.20

TOT-180   7.2  22.2  30.9  15.0  16.3  <--cm   -  kg/ha-->  116.2   60.5  78407
SOIL ALBEDO    : 0.14      EVAPORATION LIMIT : 5.00         MIN. FACTOR  : 1.00
RUNOFF CURVE # :60.00      DRAINAGE RATE     : 0.60         FERT. FACTOR : 1.00

 Wheat            CULTIVAR: IB0488-NEWTON             ECOTYPE: USWH01
   P1V   P1D    P5    G1    G2    G3 PHINT
  48.5  73.5 505.0  35.4  22.6  0.78  95.0


*SIMULATED CROP AND SOIL STATUS AT MAIN DEVELOPMENT STAGES
  
 RUN NO.      1   N RESPONSE,KANSAS STATE  3FE(N)*2IR  (DSSAT3)               

 ...... DATE ......  GROWTH STAGE BIOMASS   LEAF       CROP N      STRESS
 YEARDOY DOM MON DAP ............. kg/ha AREA NUMBER  kg/ha   %   H2O    N
 1981289  16 Oct 365 7 Sowing         0  0.00   0.0     0   0.0  0.00  0.00
 1981290  17 Oct   1 8 Germinate      0  0.00   0.0     0   0.0  0.00  0.00
 1981294  21 Oct   5 9 Emergence      0  0.00   0.0     0   0.0  0.00  0.00
 1982109  19 Apr 185 1 Term Spklt   840  0.85  11.0    11   1.3  0.00  0.05
 1982129   9 May 205 2 End Veg     1784  1.44  14.1    19   1.1  0.00  0.50
 1982139  19 May 215 3 End Ear Gr  2703  1.26  14.1    24   0.9  0.00  0.24
 1982149  29 May 225 4 Beg Gr Fil  4049  1.13  14.1    29   0.7  0.00  0.01
 1982174  23 Jun 250 5 End Gr Fil  5498  0.27  14.1    47   0.9  0.00  0.51
 1982174  23 Jun 250 6 Harvest     5498  0.27  14.1    47   0.9  0.00  0.98
  
 BIOMASS = Above-ground dry wt (kg/ha)
 LEAF AREA  = Leaf area index (m2/m2)
 LEAF NUMBER  = Leaf number produced on main axis
 CROP N  = Above-ground N (kg/ha)
 CROP N% = Above-ground N conc (%)
 H2O STRESS = Photosynthesis stress,average (0-1,0=none)
 N STRESS = Photosynthesis stress,average (0-1,0=none)
  

*MAIN GROWTH AND DEVELOPMENT VARIABLES

@     VARIABLE                             SIMULATED     MEASURED
      --------                             ---------     --------
      Emergence (DAP)                            5          -99
      Anthesis (DAP)                           217          217
      Maturity (DAP)                           250          250
      Product wt (kg dm/ha;no loss)           2010         2317
      Product unit weight (g dm)             0.019        0.029
      Product number (no/m2)                 10669         8017
      Product number (no/group)               14.5         18.0
      Product harvest index (ratio)           0.37         0.39
      Maximum leaf area index                  1.4          1.0
      Final leaf number (one axis)            14.1        -99.0
      Final shoot number (#/m2)                735          445
      Canopy (tops) wt (kg dm/ha)             5498         5994
      Vegetative wt (kg dm/ha)                3488         3677
      Root wt (kg dm/ha)                       497          -99
      Assimilate wt (kg dm/ha)                6610          -99
      Senesced wt (kg dm/ha)                   127          -99
      Reserves wt (kg dm/ha)                  1852          -99
      N uptake (kg/ha)                        54.0        -99.0
      N senesced (kg/ha)                       1.3        -99.0
      Above-ground N (kg/ha)                  47.3         59.2
      Root N (kg/ha)                           6.3        -99.0
      Vegetative N (kg/ha)                     9.1         14.9
      Product N (kg/ha)                       38.2         44.3
      Product N harvest index (ratio)         0.81         0.75
      Product N (%)                            1.9          1.9
      Vegetative N (%)                         0.3          0.4
      Leaf+stem wt,anthesis (kg dm/ha)        2940          -99
      Leaf+stem N,anthesis (kg/ha)            24.6        -99.0
      Leaf N,anthesis (%)                      3.0        -99.0

  Seed N must be added to N uptake to obtain a         
  balance with N in above-ground plus root material    

  Measured data are obtained from the A file,either    
  directly or by calculation from other other variables
  using the expressions given below:                   
                                                       
  Product wt       Harvest wt (HWAH) /                 
                               (Harvest%/100) (HPC)    
  Canopy wt        Grain wt (HWAM)+Vegetative wt (VWAm)
  Vegetative wt    Canopy wt (CWAM) - grain wt (HWAM)  
    = leaf+stem+retained dead material                 
  Product unit wt  Grain yield (HWAM)/Grain # (G#AM)   
  Product #/area   Product#/tiller (H#SM) *            
                                   tiller number (T#AM)
  Product #/group  Product#/area (H#AM) /              
                                tiller number (T#AM)   
  Harvest index    Product wt (HWAM)/Canopy wt.(CWAM)  
                                                       
  The same procedure is followed for nitrogen aspects  


*ENVIRONMENTAL AND STRESS FACTORS

 |-----Development Phase------|-------------Environment--------------|----------------Stress-----------------|
                              |--------Average-------|---Cumulative--|         (0=Min, 1=Max Stress)         |
                         Time  Temp  Temp Solar Photop         Evapo |----Water---|--Nitrogen--|--Phosphorus-|
                         Span   Max   Min   Rad  [day]   Rain  Trans  Photo         Photo         Photo
                         days    °C    °C MJ/m2     hr     mm     mm  synth Growth ' synth Growth  synth Growth
--------------------------------------------------------------------------------------------------------------
 Germinate  - Term Spklt  180   9.3  -2.8  10.1  11.64  281.7  170.6  0.000  0.000  0.054  0.054 -99.00 -99.00
 Term Spklt - End Veg      20  20.4   8.3  17.6  14.52   56.4   55.9  0.000  0.000  0.498  0.498 -99.00 -99.00
 End Veg    - End Ear Gr   10  25.4  14.9  17.6  15.06   49.8   39.3  0.000  0.000  0.240  0.240 -99.00 -99.00
 End Ear Gr - Beg Gr Fil   10  24.3  14.0  19.0  15.35  102.6   40.7  0.000  0.000  0.008  0.008 -99.00 -99.00
 Beg Gr Fil - End Gr Fil   25  25.7  14.2  20.4  15.66   89.3   92.9  0.000  0.000  0.508  0.508 -99.00 -99.00
  
 Germinate  - End Gr Fil  245  13.1   1.2  12.4  12.58  579.8  399.4  0.000  0.000  0.142  0.142 -99.00 -99.00
--------------------------------------------------------------------------------------------------------------


*RESOURCE PRODUCTIVITY

 Growing season length: 245 days 

 Precipitation during growth season        579.8 mm[rain]
   Dry Matter Productivity                  0.95 kg[DM]/m3[rain]          =    9.5 kg[DM]/ha per mm[rain]
   Yield Productivity                       0.35 kg[grain yield]/m3[rain] =    3.5 kg[yield]/ha per mm[rain]

 Evapotranspiration during growth season   399.4 mm[ET]
   Dry Matter Productivity                  1.38 kg[DM]/m3[ET]            =   13.8 kg[DM]/ha per mm[ET]
   Yield Productivity                       0.50 kg[grain yield]/m3[ET]   =    5.0 kg[yield]/ha per mm[ET]

 Transpiration during growth season        162.5 mm[EP]
   Dry Matter Productivity                  3.38 kg[DM]/m3[EP]            =   33.8 kg[DM]/ha per mm[EP]
   Yield Productivity                       1.24 kg[grain yield]/m3[EP]   =   12.4 kg[yield]/ha per mm[EP]

 N uptake during growing season             54.0 kg[N uptake]/ha
   Dry Matter Productivity                 101.8 kg[DM]/kg[N uptake]
   Yield Productivity                       37.2 kg[yield]/kg[N uptake]

--------------------------------------------------------------------------------------------------------------

          WHEAT YIELD :     2010 kg/ha    [Dry weight] 

**************************************************************************************************************
  

*DSSAT Cropping System Model Ver. 4.8.5.000 -release  SEP 11, 2025 22:39:39

*RUN   2        : DRYLAND  - 60 KG N/HA     CSCER048 KSAS8101    2
 MODEL          : CSCER048 - Wheat
 EXPERIMENT     : KSAS8101 WH N RESPONSE,KANSAS STATE  3FE(N)*2IR  (DSSAT3)
 DATA PATH      :
 TREATMENT  2   : DRYLAND  - 60 KG N/HA     CSCER048


 CROP           : Wheat            CULTIVAR : NEWTON           ECOTYPE :USWH01
 STARTING DATE  : OCT  6 1981
 PLANTING DATE  : OCT 16 1981      PLANTS/m2 :   162.0    ROW SPACING :  16.cm
 WEATHER        : KSAS   1981
 SOIL           : IBWH980018     TEXTURE : -99   - Haynie Silt Loam
 SOIL INIT COND : DEPTH:180cm EXTR. H2O:149.8mm  NO3:116.2kg/ha  NH4: 60.5kg/ha
 WATER BALANCE  : IRRIGATE ON REPORTED DATE(S)
 IRRIGATION     :        0 mm IN     0 APPLICATIONS
 NITROGEN BAL.  : SOIL-N & N-UPTAKE SIMULATION; NO N-FIXATION
 N-FERTILIZER   :       60 kg/ha IN     1 APPLICATIONS
 RESIDUE/MANURE : INITIAL :  6500 kg/ha ;       0 kg/ha IN     0 APPLICATIONS
 ENVIRONM. OPT. : DAYL=    0.00  SRAD=    0.00  TMAX=    0.00  TMIN=    0.00
                  RAIN=    0.00  CO2 =    0.00  DEW =    0.00  WIND=    0.00
 SIMULATION OPT : WATER   :Y  NITROGEN:Y  N-FIX:N  PHOSPH :N  PESTS  :N
                  PHOTO   :C  ET      :R  INFIL:S  HYDROL :R  SOM    :G
                  CO2 340ppm  NSWIT   :1  EVAP :R  SOIL   :2  STEMP  :D
 MANAGEMENT OPT : PLANTING:R  IRRIG   :R  FERT :R  RESIDUE:N  HARVEST:M
                  WEATHER :M  TILLAGE :N

*SUMMARY OF SOIL AND GENETIC INPUT PARAMETERS

   SOIL LOWER UPPER   SAT  EXTR  INIT   ROOT   BULK     pH    NO3    NH4    ORG
  DEPTH LIMIT LIMIT    SW    SW    SW   DIST   DENS                          C
   cm   cm3/cm3    cm3/cm3    cm3/cm3         g/cm3         ugN/g  ugN/g     %
-------------------------------------------------------------------------------
  0-  5 0.072 0.225 0.275 0.153 0.205   1.00   1.15   7.00   9.80   3.40   0.61
  5- 15 0.072 0.225 0.275 0.153 0.205   1.00   1.15   7.00   9.80   3.40   0.61
 15- 30 0.070 0.240 0.290 0.170 0.170   0.70   1.16   7.00   7.30   3.20   0.61
 30- 45 0.040 0.154 0.194 0.114 0.092   0.20   1.21   7.00   5.10   2.50   0.59
 45- 60 0.040 0.154 0.194 0.114 0.092   0.20   1.21   7.00   5.10   2.50   0.59
 60- 90 0.032 0.091 0.141 0.059 0.065   0.05   1.23   7.00   4.70   2.20   0.29
 90-120 0.032 0.087 0.137 0.055 0.066   0.03   1.31   7.00   4.30   2.70   0.24
120-150 0.032 0.087 0.137 0.055 0.066   0.01   1.31   7.00   4.30   2.70   0.20
150-180 0.032 0.087 0.137 0.055 0.066   0.01   1.31   7.00   4.30   2.70   0.20

TOT-180   7.2  22.2  30.9  15.0  16.3  <--cm   -  kg/ha-->  116.2   60.5  78407
SOIL ALBEDO    : 0.14      EVAPORATION LIMIT : 5.00         MIN. FACTOR  : 1.00
RUNOFF CURVE # :60.00      DRAINAGE RATE     : 0.60         FERT. FACTOR : 1.00

 Wheat            CULTIVAR: IB0488-NEWTON             ECOTYPE: USWH01
   P1V   P1D    P5    G1    G2    G3 PHINT
  48.5  73.5 505.0  35.4  22.6  0.78  95.0


*SIMULATED CROP AND SOIL STATUS AT MAIN DEVELOPMENT STAGES
  
 RUN NO.      2   N RESPONSE,KANSAS STATE  3FE(N)*2IR  (DSSAT3)               

 ...... DATE ......  GROWTH STAGE BIOMASS   LEAF       CROP N      STRESS
 YEARDOY DOM MON DAP ............. kg/ha AREA NUMBER  kg/ha   %   H2O    N
 1981289  16 Oct 365 7 Sowing         0  0.00   0.0     0   0.0  0.00  0.00
 1981290  17 Oct   1 8 Germinate      0  0.00   0.0     0   0.0  0.00  0.00
 1981294  21 Oct   5 9 Emergence      0  0.00   0.0     0   0.0  0.00  0.00
 1982109  19 Apr 185 1 Term Spklt  1322  1.16  11.0    23   1.8  0.00  0.02
 1982129   9 May 205 2 End Veg     3339  2.32  14.1    42   1.3  0.00  0.16
 1982139  19 May 215 3 End Ear Gr  4812  2.06  14.1    43   0.9  0.00  0.02
 1982149  29 May 225 4 Beg Gr Fil  6539  1.87  14.1    46   0.7  0.00  0.00
 1982174  23 Jun 250 5 End Gr Fil  8743  0.50  14.1    80   0.9  0.00  0.44
 1982174  23 Jun 250 6 Harvest     8743  0.50  14.1    80   0.9  0.00  0.97
  

*MAIN GROWTH AND DEVELOPMENT VARIABLES

@     VARIABLE                             SIMULATED     MEASURED
      --------                             ---------     --------
      Emergence (DAP)                            5          -99
      Anthesis (DAP)                           217          217
      Maturity (DAP)                           250          250
      Product wt (kg dm/ha;no loss)           3485         3330
      Product unit weight (g dm)             0.019        0.024
      Product number (no/m2)                 18419        13760
      Product number (no/group)               17.5         22.0
      Product harvest index (ratio)           0.40         0.33
      Maximum leaf area index                  2.3          1.8
      Final leaf number (one axis)            14.1        -99.0
      Final shoot number (#/m2)               1052          625
      Canopy (tops) wt (kg dm/ha)             8743        10178
      Vegetative wt (kg dm/ha)                5258         6848
      Root wt (kg dm/ha)                       727          -99
      Assimilate wt (kg dm/ha)               10276          -99
      Senesced wt (kg dm/ha)                   148          -99
      Reserves wt (kg dm/ha)                  2714          -99
      N uptake (kg/ha)                        90.3        -99.0
      N senesced (kg/ha)                       1.6        -99.0
      Above-ground N (kg/ha)                  80.4        103.2
      Root N (kg/ha)                           9.2        -99.0
      Vegetative N (kg/ha)                    14.2         39.5
      Product N (kg/ha)                       66.2         63.7
      Product N harvest index (ratio)         0.82         0.62
      Product N (%)                            1.9          1.9
      Vegetative N (%)                         0.3          0.6
      Leaf+stem wt,anthesis (kg dm/ha)        5123          -99
      Leaf+stem N,anthesis (kg/ha)            42.4        -99.0
      Leaf N,anthesis (%)                      3.0        -99.0

*ENVIRONMENTAL AND STRESS FACTORS

 |-----Development Phase------|-------------Environment--------------|----------------Stress-----------------|
                              |--------Average-------|---Cumulative--|         (0=Min, 1=Max Stress)         |
                         Time  Temp  Temp Solar Photop         Evapo |----Water---|--Nitrogen--|--Phosphorus-|
                         Span   Max   Min   Rad  [day]   Rain  Trans  Photo         Photo         Photo
                         days    °C    °C MJ/m2     hr     mm     mm  synth Growth ' synth Growth  synth Growth
--------------------------------------------------------------------------------------------------------------
 Germinate  - Term Spklt  180   9.3  -2.8  10.1  11.64  281.7  174.5  0.000  0.000  0.019  0.019 -99.00 -99.00
 Term Spklt - End Veg      20  20.4   8.3  17.6  14.52   56.4   60.8  0.000  0.000  0.163  0.163 -99.00 -99.00
 End Veg    - End Ear Gr   10  25.4  14.9  17.6  15.06   49.8   38.6  0.000  0.000  0.023  0.023 -99.00 -99.00
 End Ear Gr - Beg Gr Fil   10  24.3  14.0  19.0  15.35  102.6   40.6  0.000  0.000  0.000  0.000 -99.00 -99.00
 Beg Gr Fil - End Gr Fil   25  25.7  14.2  20.4  15.66   89.3  102.1  0.000  0.000  0.437  0.437 -99.00 -99.00
  
 Germinate  - End Gr Fil  245  13.1   1.2  12.4  12.58  579.8  416.7  0.000  0.000  0.073  0.073 -99.00 -99.00
--------------------------------------------------------------------------------------------------------------


*RESOURCE PRODUCTIVITY

 Growing season length: 245 days 

 Precipitation during growth season        579.8 mm[rain]
   Dry Matter Productivity                  1.51 kg[DM]/m3[rain]          =   15.1 kg[DM]/ha per mm[rain]
   Yield Productivity                       0.60 kg[grain yield]/m3[rain] =    6.0 kg[yield]/ha per mm[rain]

 Evapotranspiration during growth season   416.7 mm[ET]
   Dry Matter Productivity                  2.10 kg[DM]/m3[ET]            =   21.0 kg[DM]/ha per mm[ET]
   Yield Productivity                       0.84 kg[grain yield]/m3[ET]   =    8.4 kg[yield]/ha per mm[ET]

 Transpiration during growth season        207.3 mm[EP]
   Dry Matter Productivity                  4.22 kg[DM]/m3[EP]            =   42.2 kg[DM]/ha per mm[EP]
   Yield Productivity                       1.68 kg[grain yield]/m3[EP]   =   16.8 kg[yield]/ha per mm[EP]

 N applied during growing season            60.0 kg[N applied]/ha
   Dry Matter Productivity                 145.7 kg[DM]/kg[N applied]
   Yield Productivity                       58.1 kg[yield]/kg[N applied]

 N uptake during growing season             90.3 kg[N uptake]/ha
   Dry Matter Productivity                  96.8 kg[DM]/kg[N uptake]
   Yield Productivity                       38.6 kg[yield]/kg[N uptake]

--------------------------------------------------------------------------------------------------------------

          WHEAT YIELD :     3485 kg/ha    [Dry weight] 

**************************************************************************************************************
  

*DSSAT Cropping System Model Ver. 4.8.5.000 -release  SEP 11, 2025 22:39:39

*RUN   3        : DRYLAND  - 180 KG N/HA SP CSCER048 KSAS8101    3
 MODEL          : CSCER048 - Wheat
 EXPERIMENT     : KSAS8101 WH N RESPONSE,KANSAS STATE  3FE(N)*2IR  (DSSAT3)
 DATA PATH      :
 TREATMENT  3   : DRYLAND  - 180 KG N/HA SP CSCER048


 CROP           : Wheat            CULTIVAR : NEWTON           ECOTYPE :USWH01
 STARTING DATE  : OCT  6 1981
 PLANTING DATE  : OCT 16 1981      PLANTS/m2 :   162.0    ROW SPACING :  16.cm
 WEATHER        : KSAS   1981
 SOIL           : IBWH980018     TEXTURE : -99   - Haynie Silt Loam
 SOIL INIT COND : DEPTH:180cm EXTR. H2O:149.8mm  NO3:116.2kg/ha  NH4: 60.5kg/ha
 WATER BALANCE  : IRRIGATE ON REPORTED DATE(S)
 IRRIGATION     :        0 mm IN     0 APPLICATIONS
 NITROGEN BAL.  : SOIL-N & N-UPTAKE SIMULATION; NO N-FIXATION
 N-FERTILIZER   :      180 kg/ha IN     2 APPLICATIONS
 RESIDUE/MANURE : INITIAL :  6500 kg/ha ;       0 kg/ha IN     0 APPLICATIONS
 ENVIRONM. OPT. : DAYL=    0.00  SRAD=    0.00  TMAX=    0.00  TMIN=    0.00
                  RAIN=    0.00  CO2 =    0.00  DEW =    0.00  WIND=    0.00
 SIMULATION OPT : WATER   :Y  NITROGEN:Y  N-FIX:N  PHOSPH :N  PESTS  :N
                  PHOTO   :C  ET      :R  INFIL:S  HYDROL :R  SOM    :G
                  CO2 340ppm  NSWIT   :1  EVAP :R  SOIL   :2  STEMP  :D
 MANAGEMENT OPT : PLANTING:R  IRRIG   :R  FERT :R  RESIDUE:N  HARVEST:M
                  WEATHER :M  TILLAGE :N

*SUMMARY OF SOIL AND GENETIC INPUT PARAMETERS

   SOIL LOWER UPPER   SAT  EXTR  INIT   ROOT   BULK     pH    NO3    NH4    ORG
  DEPTH LIMIT LIMIT    SW    SW    SW   DIST   DENS                          C
   cm   cm3/cm3    cm3/cm3    cm3/cm3         g/cm3         ugN/g  ugN/g     %
-------------------------------------------------------------------------------
  0-  5 0.072 0.225 0.275 0.153 0.205   1.00   1.15   7.00   9.80   3.40   0.61
  5- 15 0.072 0.225 0.275 0.153 0.205   1.00   1.15   7.00   9.80   3.40   0.61
 15- 30 0.070 0.240 0.290 0.170 0.170   0.70   1.16   7.00   7.30   3.20   0.61
 30- 45 0.040 0.154 0.194 0.114 0.092   0.20   1.21   7.00   5.10   2.50   0.59
 45- 60 0.040 0.154 0.194 0.114 0.092   0.20   1.21   7.00   5.10   2.50   0.59
 60- 90 0.032 0.091 0.141 0.059 0.065   0.05   1.23   7.00   4.70   2.20   0.29
 90-120 0.032 0.087 0.137 0.055 0.066   0.03   1.31   7.00   4.30   2.70   0.24
120-150 0.032 0.087 0.137 0.055 0.066   0.01   1.31   7.00   4.30   2.70   0.20
150-180 0.032 0.087 0.137 0.055 0.066   0.01   1.31   7.00   4.30   2.70   0.20

TOT-180   7.2  22.2  30.9  15.0  16.3  <--cm   -  kg/ha-->  116.2   60.5  78407
SOIL ALBEDO    : 0.14      EVAPORATION LIMIT : 5.00         MIN. FACTOR  : 1.00
RUNOFF CURVE # :60.00      DRAINAGE RATE     : 0.60         FERT. FACTOR : 1.00

 Wheat            CULTIVAR: IB0488-NEWTON             ECOTYPE: USWH01
   P1V   P1D    P5    G1    G2    G3 PHINT
  48.5  73.5 505.0  35.4  22.6  0.78  95.0


*SIMULATED CROP AND SOIL STATUS AT MAIN DEVELOPMENT STAGES
  
 RUN NO.      3   N RESPONSE,KANSAS STATE  3FE(N)*2IR  (DSSAT3)               

 ...... DATE ......  GROWTH STAGE BIOMASS   LEAF       CROP N      STRESS
 YEARDOY DOM MON DAP ............. kg/ha AREA NUMBER  kg/ha   %   H2O    N
 1981289  16 Oct 365 7 Sowing         0  0.00   0.0     0   0.0  0.00  0.00
 1981290  17 Oct   1 8 Germinate      0  0.00   0.0     0   0.0  0.00  0.00
 1981294  21 Oct   5 9 Emergence      0  0.00   0.0     0   0.0  0.00  0.00
 1982109  19 Apr 185 1 Term Spklt  1607  1.33  11.0    32   2.0  0.00  0.00
 1982129   9 May 205 2 End Veg     4070  2.70  14.1    56   1.4  0.03  0.00
 1982139  19 May 215 3 End Ear Gr  5654  2.41  14.1    54   1.0  0.00  0.00
 1982149  29 May 225 4 Beg Gr Fil  7479  2.18  14.1    54   0.7  0.00  0.00
 1982174  23 Jun 250 5 End Gr Fil 11484  0.80  14.1   123   1.1  0.00  0.04
 1982174  23 Jun 250 6 Harvest    11484  0.80  14.1   123   1.1  0.00  0.62
  

*MAIN GROWTH AND DEVELOPMENT VARIABLES

@     VARIABLE                             SIMULATED     MEASURED
      --------                             ---------     --------
      Emergence (DAP)                            5          -99
      Anthesis (DAP)                           217          217
      Maturity (DAP)                           250          250
      Product wt (kg dm/ha;no loss)           4848         4521
      Product unit weight (g dm)             0.023        0.023
      Product number (no/m2)                 21449        19321
      Product number (no/group)               18.3         24.0
      Product harvest index (ratio)           0.42         0.36
      Maximum leaf area index                  2.7          3.0
      Final leaf number (one axis)            14.1        -99.0
      Final shoot number (#/m2)               1175          805
      Canopy (tops) wt (kg dm/ha)            11484        12649
      Vegetative wt (kg dm/ha)                6636         8128
      Root wt (kg dm/ha)                       820          -99
      Assimilate wt (kg dm/ha)               13187          -99
      Senesced wt (kg dm/ha)                   157          -99
      Reserves wt (kg dm/ha)                  3750          -99
      N uptake (kg/ha)                       135.1        -99.0
      N senesced (kg/ha)                       1.7        -99.0
      Above-ground N (kg/ha)                 123.0        166.6
      Root N (kg/ha)                          11.3        -99.0
      Vegetative N (kg/ha)                    16.2         66.7
      Product N (kg/ha)                      106.7         99.9
      Product N harvest index (ratio)         0.87         0.60
      Product N (%)                            2.2          2.2
      Vegetative N (%)                         0.2          0.8
      Leaf+stem wt,anthesis (kg dm/ha)        5982          -99
      Leaf+stem N,anthesis (kg/ha)            54.0        -99.0
      Leaf N,anthesis (%)                      3.0        -99.0

*ENVIRONMENTAL AND STRESS FACTORS

 |-----Development Phase------|-------------Environment--------------|----------------Stress-----------------|
                              |--------Average-------|---Cumulative--|         (0=Min, 1=Max Stress)         |
                         Time  Temp  Temp Solar Photop         Evapo |----Water---|--Nitrogen--|--Phosphorus-|
                         Span   Max   Min   Rad  [day]   Rain  Trans  Photo         Photo         Photo
                         days    °C    °C MJ/m2     hr     mm     mm  synth Growth ' synth Growth  synth Growth
--------------------------------------------------------------------------------------------------------------
 Germinate  - Term Spklt  180   9.3  -2.8  10.1  11.64  281.7  175.3  0.000  0.000  0.003  0.003 -99.00 -99.00
 Term Spklt - End Veg      20  20.4   8.3  17.6  14.52   56.4   59.8  0.032  0.071  0.001  0.001 -99.00 -99.00
 End Veg    - End Ear Gr   10  25.4  14.9  17.6  15.06   49.8   38.4  0.000  0.000  0.000  0.000 -99.00 -99.00
 End Ear Gr - Beg Gr Fil   10  24.3  14.0  19.0  15.35  102.6   40.4  0.000  0.000  0.000  0.000 -99.00 -99.00
 Beg Gr Fil - End Gr Fil   25  25.7  14.2  20.4  15.66   89.3  104.8  0.000  0.000  0.045  0.045 -99.00 -99.00
  
 Germinate  - End Gr Fil  245  13.1   1.2  12.4  12.58  579.8  418.7  0.003  0.006  0.007  0.007 -99.00 -99.00
--------------------------------------------------------------------------------------------------------------


*RESOURCE PRODUCTIVITY

 Growing season length: 245 days 

 Precipitation during growth season        579.8 mm[rain]
   Dry Matter Productivity                  1.98 kg[DM]/m3[rain]          =   19.8 kg[DM]/ha per mm[rain]
   Yield Productivity                       0.84 kg[grain yield]/m3[rain] =    8.4 kg[yield]/ha per mm[rain]

 Evapotranspiration during growth season   418.7 mm[ET]
   Dry Matter Productivity                  2.74 kg[DM]/m3[ET]            =   27.4 kg[DM]/ha per mm[ET]
   Yield Productivity                       1.16 kg[grain yield]/m3[ET]   =   11.6 kg[yield]/ha per mm[ET]

 Transpiration during growth season        221.4 mm[EP]
   Dry Matter Productivity                  5.19 kg[DM]/m3[EP]            =   51.9 kg[DM]/ha per mm[EP]
   Yield Productivity                       2.19 kg[grain yield]/m3[EP]   =   21.9 kg[yield]/ha per mm[EP]

 N applied during growing season           180.0 kg[N applied]/ha
   Dry Matter Productivity                  63.8 kg[DM]/kg[N applied]
   Yield Productivity                       26.9 kg[yield]/kg[N applied]

 N uptake during growing season            135.1 kg[N uptake]/ha
   Dry Matter Productivity                  85.0 kg[DM]/kg[N uptake]
   Yield Productivity                       35.9 kg[yield]/kg[N uptake]

--------------------------------------------------------------------------------------------------------------

          WHEAT YIELD :     4848 kg/ha    [Dry weight] 

**************************************************************************************************************
  

*DSSAT Cropping System Model Ver. 4.8.5.000 -release  SEP 11, 2025 22:39:39

*RUN   4        : IRRIGATED - 0 KG N/HA     CSCER048 KSAS8101    4
 MODEL          : CSCER048 - Wheat
 EXPERIMENT     : KSAS8101 WH N RESPONSE,KANSAS STATE  3FE(N)*2IR  (DSSAT3)
 DATA PATH      :
 TREATMENT  4   : IRRIGATED - 0 KG N/HA     CSCER048


 CROP           : Wheat            CULTIVAR : NEWTON           ECOTYPE :USWH01
 STARTING DATE  : OCT  6 1981
 PLANTING DATE  : OCT 16 1981      PLANTS/m2 :   162.0    ROW SPACING :  16.cm
 WEATHER        : KSAS   1981
 SOIL           : IBWH980018     TEXTURE : -99   - Haynie Silt Loam
 SOIL INIT COND : DEPTH:180cm EXTR. H2O:149.8mm  NO3:116.2kg/ha  NH4: 60.5kg/ha
 WATER BALANCE  : IRRIGATE ON REPORTED DATE(S)
 IRRIGATION     :      213 mm IN     3 APPLICATIONS
 NITROGEN BAL.  : SOIL-N & N-UPTAKE SIMULATION; NO N-FIXATION
 N-FERTILIZER   :        0 kg/ha IN     0 APPLICATIONS
 RESIDUE/MANURE : INITIAL :  6500 kg/ha ;       0 kg/ha IN     0 APPLICATIONS
 ENVIRONM. OPT. : DAYL=    0.00  SRAD=    0.00  TMAX=    0.00  TMIN=    0.00
                  RAIN=    0.00  CO2 =    0.00  DEW =    0.00  WIND=    0.00
 SIMULATION OPT : WATER   :Y  NITROGEN:Y  N-FIX:N  PHOSPH :N  PESTS  :N
                  PHOTO   :C  ET      :R  INFIL:S  HYDROL :R  SOM    :G
                  CO2 340ppm  NSWIT   :1  EVAP :R  SOIL   :2  STEMP  :D
 MANAGEMENT OPT : PLANTING:R  IRRIG   :R  FERT :R  RESIDUE:N  HARVEST:M
                  WEATHER :M  TILLAGE :N

*SUMMARY OF SOIL AND GENETIC INPUT PARAMETERS

   SOIL LOWER UPPER   SAT  EXTR  INIT   ROOT   BULK     pH    NO3    NH4    ORG
  DEPTH LIMIT LIMIT    SW    SW    SW   DIST   DENS                          C
   cm   cm3/cm3    cm3/cm3    cm3/cm3         g/cm3         ugN/g  ugN/g     %
-------------------------------------------------------------------------------
  0-  5 0.072 0.225 0.275 0.153 0.205   1.00   1.15   7.00   9.80   3.40   0.61
  5- 15 0.072 0.225 0.275 0.153 0.205   1.00   1.15   7.00   9.80   3.40   0.61
 15- 30 0.070 0.240 0.290 0.170 0.170   0.70   1.16   7.00   7.30   3.20   0.61
 30- 45 0.040 0.154 0.194 0.114 0.092   0.20   1.21   7.00   5.10   2.50   0.59
 45- 60 0.040 0.154 0.194 0.114 0.092   0.20   1.21   7.00   5.10   2.50   0.59
 60- 90 0.032 0.091 0.141 0.059 0.065   0.05   1.23   7.00   4.70   2.20   0.29
 90-120 0.032 0.087 0.137 0.055 0.066   0.03   1.31   7.00   4.30   2.70   0.24
120-150 0.032 0.087 0.137 0.055 0.066   0.01   1.31   7.00   4.30   2.70   0.20
150-180 0.032 0.087 0.137 0.055 0.066   0.01   1.31   7.00   4.30   2.70   0.20

TOT-180   7.2  22.2  30.9  15.0  16.3  <--cm   -  kg/ha-->  116.2   60.5  78407
SOIL ALBEDO    : 0.14      EVAPORATION LIMIT : 5.00         MIN. FACTOR  : 1.00
RUNOFF CURVE # :60.00      DRAINAGE RATE     : 0.60         FERT. FACTOR : 1.00

 Wheat            CULTIVAR: IB0488-NEWTON             ECOTYPE: USWH01
   P1V   P1D    P5    G1    G2    G3 PHINT
  48.5  73.5 505.0  35.4  22.6  0.78  95.0


*SIMULATED CROP AND SOIL STATUS AT MAIN DEVELOPMENT STAGES
  
 RUN NO.      4   N RESPONSE,KANSAS STATE  3FE(N)*2IR  (DSSAT3)               

 ...... DATE ......  GROWTH STAGE BIOMASS   LEAF       CROP N      STRESS
 YEARDOY DOM MON DAP ............. kg/ha AREA NUMBER  kg/ha   %   H2O    N
 1981289  16 Oct 365 7 Sowing         0  0.00   0.0     0   0.0  0.00  0.00
 1981290  17 Oct   1 8 Germinate      0  0.00   0.0     0   0.0  0.00  0.00
 1981294  21 Oct   5 9 Emergence      0  0.00   0.0     0   0.0  0.00  0.00
 1982109  19 Apr 185 1 Term Spklt   809  0.82  11.0    10   1.3  0.00  0.06
 1982129   9 May 205 2 End Veg     1565  1.30  14.1    14   0.9  0.00  0.57
 1982139  19 May 215 3 End Ear Gr  2220  1.13  14.1    18   0.8  0.00  0.42
 1982149  29 May 225 4 Beg Gr Fil  3310  1.01  14.1    22   0.7  0.00  0.14
 1982174  23 Jun 250 5 End Gr Fil  4097  0.19  14.1    34   0.8  0.00  0.71
 1982174  23 Jun 250 6 Harvest     4097  0.19  14.1    34   0.8  0.00  0.99
  

*MAIN GROWTH AND DEVELOPMENT VARIABLES

@     VARIABLE                             SIMULATED     MEASURED
      --------                             ---------     --------
      Emergence (DAP)                            5          -99
      Anthesis (DAP)                           217          217
      Maturity (DAP)                           250          250
      Product wt (kg dm/ha;no loss)           1391         1438
      Product unit weight (g dm)             0.016        0.028
      Product number (no/m2)                  8665         5117
      Product number (no/group)               13.9         18.0
      Product harvest index (ratio)           0.34         0.37
      Maximum leaf area index                  1.3          0.8
      Final leaf number (one axis)            14.1        -99.0
      Final shoot number (#/m2)                624          284
      Canopy (tops) wt (kg dm/ha)             4097         3926
      Vegetative wt (kg dm/ha)                2706         2488
      Root wt (kg dm/ha)                       443          -99
      Assimilate wt (kg dm/ha)                5114          -99
      Senesced wt (kg dm/ha)                   124          -99
      Reserves wt (kg dm/ha)                  1433          -99
      N uptake (kg/ha)                        39.9        -99.0
      N senesced (kg/ha)                       1.3        -99.0
      Above-ground N (kg/ha)                  33.9         37.7
      Root N (kg/ha)                           5.6        -99.0
      Vegetative N (kg/ha)                     7.4         11.0
      Product N (kg/ha)                       26.4         26.7
      Product N harvest index (ratio)         0.78         0.71
      Product N (%)                            1.9          1.9
      Vegetative N (%)                         0.3          0.4
      Leaf+stem wt,anthesis (kg dm/ha)        2398          -99
      Leaf+stem N,anthesis (kg/ha)            18.4        -99.0
      Leaf N,anthesis (%)                      2.5        -99.0

*ENVIRONMENTAL AND STRESS FACTORS

 |-----Development Phase------|-------------Environment--------------|----------------Stress-----------------|
                              |--------Average-------|---Cumulative--|         (0=Min, 1=Max Stress)         |
                         Time  Temp  Temp Solar Photop         Evapo |----Water---|--Nitrogen--|--Phosphorus-|
                         Span   Max   Min   Rad  [day]   Rain  Trans  Photo         Photo         Photo
                         days    °C    °C MJ/m2     hr     mm     mm  synth Growth ' synth Growth  synth Growth
--------------------------------------------------------------------------------------------------------------
 Germinate  - Term Spklt  180   9.3  -2.8  10.1  11.64  281.7  177.0  0.000  0.000  0.055  0.055 -99.00 -99.00
 Term Spklt - End Veg      20  20.4   8.3  17.6  14.52   56.4   66.2  0.000  0.000  0.571  0.571 -99.00 -99.00
 End Veg    - End Ear Gr   10  25.4  14.9  17.6  15.06   49.8   39.4  0.000  0.000  0.418  0.418 -99.00 -99.00
 End Ear Gr - Beg Gr Fil   10  24.3  14.0  19.0  15.35  102.6   41.3  0.000  0.000  0.139  0.139 -99.00 -99.00
 Beg Gr Fil - End Gr Fil   25  25.7  14.2  20.4  15.66   89.3   89.9  0.000  0.000  0.706  0.706 -99.00 -99.00
  
 Germinate  - End Gr Fil  245  13.1   1.2  12.4  12.58  579.8  413.7  0.000  0.000  0.182  0.182 -99.00 -99.00
--------------------------------------------------------------------------------------------------------------


*RESOURCE PRODUCTIVITY

 Growing season length: 245 days 

 Precipitation during growth season        579.8 mm[rain]
   Dry Matter Productivity                  0.71 kg[DM]/m3[rain]          =    7.1 kg[DM]/ha per mm[rain]
   Yield Productivity                       0.24 kg[grain yield]/m3[rain] =    2.4 kg[yield]/ha per mm[rain]

 Evapotranspiration during growth season   413.7 mm[ET]
   Dry Matter Productivity                  0.99 kg[DM]/m3[ET]            =    9.9 kg[DM]/ha per mm[ET]
   Yield Productivity                       0.34 kg[grain yield]/m3[ET]   =    3.4 kg[yield]/ha per mm[ET]

 Transpiration during growth season        152.2 mm[EP]
   Dry Matter Productivity                  2.69 kg[DM]/m3[EP]            =   26.9 kg[DM]/ha per mm[EP]
   Yield Productivity                       0.91 kg[grain yield]/m3[EP]   =    9.1 kg[yield]/ha per mm[EP]

 Irrigation during growing season          213.0 mm[irrig]
   Dry Matter Productivity                  1.92 kg[DM]/m3[irrig]         =   19.2 kg[DM]/ha per mm[irrig]
   Yield Productivity                       0.65 kg[grain yield]/m3[irrig]=    6.5 kg[yield]/ha per mm[irrig]

 N uptake during growing season             39.9 kg[N uptake]/ha
   Dry Matter Productivity                 102.8 kg[DM]/kg[N uptake]
   Yield Productivity                       34.9 kg[yield]/kg[N uptake]

--------------------------------------------------------------------------------------------------------------

          WHEAT YIELD :     1391 kg/ha    [Dry weight] 

**************************************************************************************************************
  

*DSSAT Cropping System Model Ver. 4.8.5.000 -release  SEP 11, 2025 22:39:40

*RUN   5        : IRRIGATED - 60 KG N/HA    CSCER048 KSAS8101    5
 MODEL          : CSCER048 - Wheat
 EXPERIMENT     : KSAS8101 WH N RESPONSE,KANSAS STATE  3FE(N)*2IR  (DSSAT3)
 DATA PATH      :
 TREATMENT  5   : IRRIGATED - 60 KG N/HA    CSCER048


 CROP           : Wheat            CULTIVAR : NEWTON           ECOTYPE :USWH01
 STARTING DATE  : OCT  6 1981
 PLANTING DATE  : OCT 16 1981      PLANTS/m2 :   162.0    ROW SPACING :  16.cm
 WEATHER        : KSAS   1981
 SOIL           : IBWH980018     TEXTURE : -99   - Haynie Silt Loam
 SOIL INIT COND : DEPTH:180cm EXTR. H2O:149.8mm  NO3:116.2kg/ha  NH4: 60.5kg/ha
 WATER BALANCE  : IRRIGATE ON REPORTED DATE(S)
 IRRIGATION     :      213 mm IN     3 APPLICATIONS
 NITROGEN BAL.  : SOIL-N & N-UPTAKE SIMULATION; NO N-FIXATION
 N-FERTILIZER   :       60 kg/ha IN     1 APPLICATIONS
 RESIDUE/MANURE : INITIAL :  6500 kg/ha ;       0 kg/ha IN     0 APPLICATIONS
 ENVIRONM. OPT. : DAYL=    0.00  SRAD=    0.00  TMAX=    0.00  TMIN=    0.00
                  RAIN=    0.00  CO2 =    0.00  DEW =    0.00  WIND=    0.00
 SIMULATION OPT : WATER   :Y  NITROGEN:Y  N-FIX:N  PHOSPH :N  PESTS  :N
                  PHOTO   :C  ET      :R  INFIL:S  HYDROL :R  SOM    :G
                  CO2 340ppm  NSWIT   :1  EVAP :R  SOIL   :2  STEMP  :D
 MANAGEMENT OPT : PLANTING:R  IRRIG   :R  FERT :R  RESIDUE:N  HARVEST:M
                  WEATHER :M  TILLAGE :N

*SUMMARY OF SOIL AND GENETIC INPUT PARAMETERS

   SOIL LOWER UPPER   SAT  EXTR  INIT   ROOT   BULK     pH    NO3    NH4    ORG
  DEPTH LIMIT LIMIT    SW    SW    SW   DIST   DENS                          C
   cm   cm3/cm3    cm3/cm3    cm3/cm3         g/cm3         ugN/g  ugN/g     %
-------------------------------------------------------------------------------
  0-  5 0.072 0.225 0.275 0.153 0.205   1.00   1.15   7.00   9.80   3.40   0.61
  5- 15 0.072 0.225 0.275 0.153 0.205   1.00   1.15   7.00   9.80   3.40   0.61
 15- 30 0.070 0.240 0.290 0.170 0.170   0.70   1.16   7.00   7.30   3.20   0.61
 30- 45 0.040 0.154 0.194 0.114 0.092   0.20   1.21   7.00   5.10   2.50   0.59
 45- 60 0.040 0.154 0.194 0.114 0.092   0.20   1.21   7.00   5.10   2.50   0.59
 60- 90 0.032 0.091 0.141 0.059 0.065   0.05   1.23   7.00   4.70   2.20   0.29
 90-120 0.032 0.087 0.137 0.055 0.066   0.03   1.31   7.00   4.30   2.70   0.24
120-150 0.032 0.087 0.137 0.055 0.066   0.01   1.31   7.00   4.30   2.70   0.20
150-180 0.032 0.087 0.137 0.055 0.066   0.01   1.31   7.00   4.30   2.70   0.20

TOT-180   7.2  22.2  30.9  15.0  16.3  <--cm   -  kg/ha-->  116.2   60.5  78407
SOIL ALBEDO    : 0.14      EVAPORATION LIMIT : 5.00         MIN. FACTOR  : 1.00
RUNOFF CURVE # :60.00      DRAINAGE RATE     : 0.60         FERT. FACTOR : 1.00

 Wheat            CULTIVAR: IB0488-NEWTON             ECOTYPE: USWH01
   P1V   P1D    P5    G1    G2    G3 PHINT
  48.5  73.5 505.0  35.4  22.6  0.78  95.0


*SIMULATED CROP AND SOIL STATUS AT MAIN DEVELOPMENT STAGES
  
 RUN NO.      5   N RESPONSE,KANSAS STATE  3FE(N)*2IR  (DSSAT3)               

 ...... DATE ......  GROWTH STAGE BIOMASS   LEAF       CROP N      STRESS
 YEARDOY DOM MON DAP ............. kg/ha AREA NUMBER  kg/ha   %   H2O    N
 1981289  16 Oct 365 7 Sowing         0  0.00   0.0     0   0.0  0.00  0.00
 1981290  17 Oct   1 8 Germinate      0  0.00   0.0     0   0.0  0.00  0.00
 1981294  21 Oct   5 9 Emergence      0  0.00   0.0     0   0.0  0.00  0.00
 1982109  19 Apr 185 1 Term Spklt  1279  1.13  11.0    21   1.6  0.00  0.02
 1982129   9 May 205 2 End Veg     2857  2.04  14.1    29   1.0  0.00  0.30
 1982139  19 May 215 3 End Ear Gr  4000  1.80  14.1    33   0.8  0.00  0.20
 1982149  29 May 225 4 Beg Gr Fil  5623  1.63  14.1    37   0.7  0.00  0.00
 1982174  23 Jun 250 5 End Gr Fil  6614  0.29  14.1    50   0.8  0.00  0.72
 1982174  23 Jun 250 6 Harvest     6614  0.29  14.1    50   0.8  0.00  0.99
  

*MAIN GROWTH AND DEVELOPMENT VARIABLES

@     VARIABLE                             SIMULATED     MEASURED
      --------                             ---------     --------
      Emergence (DAP)                            5          -99
      Anthesis (DAP)                           217          217
      Maturity (DAP)                           250          250
      Product wt (kg dm/ha;no loss)           2019         3025
      Product unit weight (g dm)             0.013        0.024
      Product number (no/m2)                 15479        12657
      Product number (no/group)               16.5         20.0
      Product harvest index (ratio)           0.31         0.32
      Maximum leaf area index                  2.0          1.8
      Final leaf number (one axis)            14.1        -99.0
      Final shoot number (#/m2)                936          633
      Canopy (tops) wt (kg dm/ha)             6614         9424
      Vegetative wt (kg dm/ha)                4595         6399
      Root wt (kg dm/ha)                       654          -99
      Assimilate wt (kg dm/ha)                8020          -99
      Senesced wt (kg dm/ha)                   144          -99
      Reserves wt (kg dm/ha)                  2490          -99
      N uptake (kg/ha)                        59.4        -99.0
      N senesced (kg/ha)                       1.5        -99.0
      Above-ground N (kg/ha)                  50.4         87.8
      Root N (kg/ha)                           8.3        -99.0
      Vegetative N (kg/ha)                    12.1         31.0
      Product N (kg/ha)                       38.4         56.8
      Product N harvest index (ratio)         0.76         0.65
      Product N (%)                            1.9          1.9
      Vegetative N (%)                         0.3          0.5
      Leaf+stem wt,anthesis (kg dm/ha)        4292          -99
      Leaf+stem N,anthesis (kg/ha)            33.7        -99.0
      Leaf N,anthesis (%)                      3.0        -99.0

*ENVIRONMENTAL AND STRESS FACTORS

 |-----Development Phase------|-------------Environment--------------|----------------Stress-----------------|
                              |--------Average-------|---Cumulative--|         (0=Min, 1=Max Stress)         |
                         Time  Temp  Temp Solar Photop         Evapo |----Water---|--Nitrogen--|--Phosphorus-|
                         Span   Max   Min   Rad  [day]   Rain  Trans  Photo         Photo         Photo
                         days    °C    °C MJ/m2     hr     mm     mm  synth Growth ' synth Growth  synth Growth
--------------------------------------------------------------------------------------------------------------
 Germinate  - Term Spklt  180   9.3  -2.8  10.1  11.64  281.7  180.7  0.000  0.000  0.021  0.021 -99.00 -99.00
 Term Spklt - End Veg      20  20.4   8.3  17.6  14.52   56.4   68.6  0.000  0.000  0.301  0.301 -99.00 -99.00
 End Veg    - End Ear Gr   10  25.4  14.9  17.6  15.06   49.8   38.4  0.000  0.000  0.202  0.202 -99.00 -99.00
 End Ear Gr - Beg Gr Fil   10  24.3  14.0  19.0  15.35  102.6   40.8  0.000  0.000  0.005  0.005 -99.00 -99.00
 Beg Gr Fil - End Gr Fil   25  25.7  14.2  20.4  15.66   89.3   97.0  0.000  0.000  0.720  0.720 -99.00 -99.00
  
 Germinate  - End Gr Fil  245  13.1   1.2  12.4  12.58  579.8  425.6  0.000  0.000  0.122  0.122 -99.00 -99.00
--------------------------------------------------------------------------------------------------------------


*RESOURCE PRODUCTIVITY

 Growing season length: 245 days 

 Precipitation during growth season        579.8 mm[rain]
   Dry Matter Productivity                  1.14 kg[DM]/m3[rain]          =   11.4 kg[DM]/ha per mm[rain]
   Yield Productivity                       0.35 kg[grain yield]/m3[rain] =    3.5 kg[yield]/ha per mm[rain]

 Evapotranspiration during growth season   425.6 mm[ET]
   Dry Matter Productivity                  1.55 kg[DM]/m3[ET]            =   15.5 kg[DM]/ha per mm[ET]
   Yield Productivity                       0.47 kg[grain yield]/m3[ET]   =    4.7 kg[yield]/ha per mm[ET]

 Transpiration during growth season        192.9 mm[EP]
   Dry Matter Productivity                  3.43 kg[DM]/m3[EP]            =   34.3 kg[DM]/ha per mm[EP]
   Yield Productivity                       1.05 kg[grain yield]/m3[EP]   =   10.5 kg[yield]/ha per mm[EP]

 Irrigation during growing season          213.0 mm[irrig]
   Dry Matter Productivity                  3.11 kg[DM]/m3[irrig]         =   31.1 kg[DM]/ha per mm[irrig]
   Yield Productivity                       0.95 kg[grain yield]/m3[irrig]=    9.5 kg[yield]/ha per mm[irrig]

 N applied during growing season            60.0 kg[N applied]/ha
   Dry Matter Productivity                 110.2 kg[DM]/kg[N applied]
   Yield Productivity                       33.7 kg[yield]/kg[N applied]

 N uptake during growing season             59.4 kg[N uptake]/ha
   Dry Matter Productivity                 111.4 kg[DM]/kg[N uptake]
   Yield Productivity                       34.0 kg[yield]/kg[N uptake]

--------------------------------------------------------------------------------------------------------------

          WHEAT YIELD :     2019 kg/ha    [Dry weight] 

**************************************************************************************************************
  

*DSSAT Cropping System Model Ver. 4.8.5.000 -release  SEP 11, 2025 22:39:40

*RUN   6        : IRRIGATED 180 KG N/HA SPL CSCER048 KSAS8101    6
 MODEL          : CSCER048 - Wheat
 EXPERIMENT     : KSAS8101 WH N RESPONSE,KANSAS STATE  3FE(N)*2IR  (DSSAT3)
 DATA PATH      :
 TREATMENT  6   : IRRIGATED 180 KG N/HA SPL CSCER048


 CROP           : Wheat            CULTIVAR : NEWTON           ECOTYPE :USWH01
 STARTING DATE  : OCT  6 1981
 PLANTING DATE  : OCT 16 1981      PLANTS/m2 :   162.0    ROW SPACING :  16.cm
 WEATHER        : KSAS   1981
 SOIL           : IBWH980018     TEXTURE : -99   - Haynie Silt Loam
 SOIL INIT COND : DEPTH:180cm EXTR. H2O:149.8mm  NO3:116.2kg/ha  NH4: 60.5kg/ha
 WATER BALANCE  : IRRIGATE ON REPORTED DATE(S)
 IRRIGATION     :      213 mm IN     3 APPLICATIONS
 NITROGEN BAL.  : SOIL-N & N-UPTAKE SIMULATION; NO N-FIXATION
 N-FERTILIZER   :      180 kg/ha IN     2 APPLICATIONS
 RESIDUE/MANURE : INITIAL :  6500 kg/ha ;       0 kg/ha IN     0 APPLICATIONS
 ENVIRONM. OPT. : DAYL=    0.00  SRAD=    0.00  TMAX=    0.00  TMIN=    0.00
                  RAIN=    0.00  CO2 =    0.00  DEW =    0.00  WIND=    0.00
 SIMULATION OPT : WATER   :Y  NITROGEN:Y  N-FIX:N  PHOSPH :N  PESTS  :N
                  PHOTO   :C  ET      :R  INFIL:S  HYDROL :R  SOM    :G
                  CO2 340ppm  NSWIT   :1  EVAP :R  SOIL   :2  STEMP  :D
 MANAGEMENT OPT : PLANTING:R  IRRIG   :R  FERT :R  RESIDUE:N  HARVEST:M
                  WEATHER :M  TILLAGE :N

*SUMMARY OF SOIL AND GENETIC INPUT PARAMETERS

   SOIL LOWER UPPER   SAT  EXTR  INIT   ROOT   BULK     pH    NO3    NH4    ORG
  DEPTH LIMIT LIMIT    SW    SW    SW   DIST   DENS                          C
   cm   cm3/cm3    cm3/cm3    cm3/cm3         g/cm3         ugN/g  ugN/g     %
-------------------------------------------------------------------------------
  0-  5 0.072 0.225 0.275 0.153 0.205   1.00   1.15   7.00   9.80   3.40   0.61
  5- 15 0.072 0.225 0.275 0.153 0.205   1.00   1.15   7.00   9.80   3.40   0.61
 15- 30 0.070 0.240 0.290 0.170 0.170   0.70   1.16   7.00   7.30   3.20   0.61
 30- 45 0.040 0.154 0.194 0.114 0.092   0.20   1.21   7.00   5.10   2.50   0.59
 45- 60 0.040 0.154 0.194 0.114 0.092   0.20   1.21   7.00   5.10   2.50   0.59
 60- 90 0.032 0.091 0.141 0.059 0.065   0.05   1.23   7.00   4.70   2.20   0.29
 90-120 0.032 0.087 0.137 0.055 0.066   0.03   1.31   7.00   4.30   2.70   0.24
120-150 0.032 0.087 0.137 0.055 0.066   0.01   1.31   7.00   4.30   2.70   0.20
150-180 0.032 0.087 0.137 0.055 0.066   0.01   1.31   7.00   4.30   2.70   0.20

TOT-180   7.2  22.2  30.9  15.0  16.3  <--cm   -  kg/ha-->  116.2   60.5  78407
SOIL ALBEDO    : 0.14      EVAPORATION LIMIT : 5.00         MIN. FACTOR  : 1.00
RUNOFF CURVE # :60.00      DRAINAGE RATE     : 0.60         FERT. FACTOR : 1.00

 Wheat            CULTIVAR: IB0488-NEWTON             ECOTYPE: USWH01
   P1V   P1D    P5    G1    G2    G3 PHINT
  48.5  73.5 505.0  35.4  22.6  0.78  95.0


*SIMULATED CROP AND SOIL STATUS AT MAIN DEVELOPMENT STAGES
  
 RUN NO.      6   N RESPONSE,KANSAS STATE  3FE(N)*2IR  (DSSAT3)               

 ...... DATE ......  GROWTH STAGE BIOMASS   LEAF       CROP N      STRESS
 YEARDOY DOM MON DAP ............. kg/ha AREA NUMBER  kg/ha   %   H2O    N
 1981289  16 Oct 365 7 Sowing         0  0.00   0.0     0   0.0  0.00  0.00
 1981290  17 Oct   1 8 Germinate      0  0.00   0.0     0   0.0  0.00  0.00
 1981294  21 Oct   5 9 Emergence      0  0.00   0.0     0   0.0  0.00  0.00
 1982109  19 Apr 185 1 Term Spklt  1607  1.33  11.0    33   2.1  0.00  0.00
 1982129   9 May 205 2 End Veg     4225  2.82  14.1    59   1.4  0.00  0.00
 1982139  19 May 215 3 End Ear Gr  5827  2.52  14.1    57   1.0  0.00  0.00
 1982149  29 May 225 4 Beg Gr Fil  7677  2.28  14.1    56   0.7  0.00  0.00
 1982174  23 Jun 250 5 End Gr Fil  9824  0.55  14.1    85   0.9  0.00  0.49
 1982174  23 Jun 250 6 Harvest     9824  0.55  14.1    85   0.9  0.00  0.98
  

*MAIN GROWTH AND DEVELOPMENT VARIABLES

@     VARIABLE                             SIMULATED     MEASURED
      --------                             ---------     --------
      Emergence (DAP)                            5          -99
      Anthesis (DAP)                           217          217
      Maturity (DAP)                           250          250
      Product wt (kg dm/ha;no loss)           3627         4695
      Product unit weight (g dm)             0.016        0.023
      Product number (no/m2)                 22072        20325
      Product number (no/group)               18.6         24.0
      Product harvest index (ratio)           0.37         0.36
      Maximum leaf area index                  2.8          2.9
      Final leaf number (one axis)            14.1        -99.0
      Final shoot number (#/m2)               1189          847
      Canopy (tops) wt (kg dm/ha)             9824        13064
      Vegetative wt (kg dm/ha)                6197         8369
      Root wt (kg dm/ha)                       813          -99
      Assimilate wt (kg dm/ha)               11515          -99
      Senesced wt (kg dm/ha)                   157          -99
      Reserves wt (kg dm/ha)                  3308          -99
      N uptake (kg/ha)                        96.5        -99.0
      N senesced (kg/ha)                       1.7        -99.0
      Above-ground N (kg/ha)                  85.4        166.5
      Root N (kg/ha)                          10.3        -99.0
      Vegetative N (kg/ha)                    16.4         71.0
      Product N (kg/ha)                       68.9         95.5
      Product N harvest index (ratio)         0.81         0.57
      Product N (%)                            1.9          2.0
      Vegetative N (%)                         0.3          0.8
      Leaf+stem wt,anthesis (kg dm/ha)        6159          -99
      Leaf+stem N,anthesis (kg/ha)            56.3        -99.0
      Leaf N,anthesis (%)                      3.0        -99.0

*ENVIRONMENTAL AND STRESS FACTORS

 |-----Development Phase------|-------------Environment--------------|----------------Stress-----------------|
                              |--------Average-------|---Cumulative--|         (0=Min, 1=Max Stress)         |
                         Time  Temp  Temp Solar Photop         Evapo |----Water---|--Nitrogen--|--Phosphorus-|
                         Span   Max   Min   Rad  [day]   Rain  Trans  Photo         Photo         Photo
                         days    °C    °C MJ/m2     hr     mm     mm  synth Growth ' synth Growth  synth Growth
--------------------------------------------------------------------------------------------------------------
 Germinate  - Term Spklt  180   9.3  -2.8  10.1  11.64  281.7  181.7  0.000  0.000  0.003  0.003 -99.00 -99.00
 Term Spklt - End Veg      20  20.4   8.3  17.6  14.52   56.4   68.9  0.000  0.000  0.000  0.000 -99.00 -99.00
 End Veg    - End Ear Gr   10  25.4  14.9  17.6  15.06   49.8   38.4  0.000  0.000  0.000  0.000 -99.00 -99.00
 End Ear Gr - Beg Gr Fil   10  24.3  14.0  19.0  15.35  102.6   40.3  0.000  0.000  0.000  0.000 -99.00 -99.00
 Beg Gr Fil - End Gr Fil   25  25.7  14.2  20.4  15.66   89.3  103.3  0.000  0.000  0.493  0.493 -99.00 -99.00
  
 Germinate  - End Gr Fil  245  13.1   1.2  12.4  12.58  579.8  432.6  0.000  0.000  0.052  0.052 -99.00 -99.00
--------------------------------------------------------------------------------------------------------------


*RESOURCE PRODUCTIVITY

 Growing season length: 245 days 

 Precipitation during growth season        579.8 mm[rain]
   Dry Matter Productivity                  1.69 kg[DM]/m3[rain]          =   16.9 kg[DM]/ha per mm[rain]
   Yield Productivity                       0.63 kg[grain yield]/m3[rain] =    6.3 kg[yield]/ha per mm[rain]

 Evapotranspiration during growth season   432.6 mm[ET]
   Dry Matter Productivity                  2.27 kg[DM]/m3[ET]            =   22.7 kg[DM]/ha per mm[ET]
   Yield Productivity                       0.84 kg[grain yield]/m3[ET]   =    8.4 kg[yield]/ha per mm[ET]

 Transpiration during growth season        223.4 mm[EP]
   Dry Matter Productivity                  4.40 kg[DM]/m3[EP]            =   44.0 kg[DM]/ha per mm[EP]
   Yield Productivity                       1.62 kg[grain yield]/m3[EP]   =   16.2 kg[yield]/ha per mm[EP]

 Irrigation during growing season          213.0 mm[irrig]
   Dry Matter Productivity                  4.61 kg[DM]/m3[irrig]         =   46.1 kg[DM]/ha per mm[irrig]
   Yield Productivity                       1.70 kg[grain yield]/m3[irrig]=   17.0 kg[yield]/ha per mm[irrig]

 N applied during growing season           180.0 kg[N applied]/ha
   Dry Matter Productivity                  54.6 kg[DM]/kg[N applied]
   Yield Productivity                       20.2 kg[yield]/kg[N applied]

 N uptake during growing season             96.5 kg[N uptake]/ha
   Dry Matter Productivity                 101.8 kg[DM]/kg[N uptake]
   Yield Productivity                       37.6 kg[yield]/kg[N uptake]

--------------------------------------------------------------------------------------------------------------

          WHEAT YIELD :     3627 kg/ha    [Dry weight] 

**************************************************************************************************************
