$GROWTH ASPECTS OUTPUT FILE

*DSSAT Cropping System Model Ver. 4.8.5.000 -release  SEP 11, 2025 22:39:39

*RUN   1        : DRYLAND  - 0 KG N/HA      CSCER048 KSAS8101    1
 MODEL          : CSCER048 - Wheat
 EXPERIMENT     : KSAS8101 WH N RESPONSE,KANSAS STATE  3FE(N)*2IR  (DSSAT3)
 DATA PATH      :
 TREATMENT  1   : DRYLAND  - 0 KG N/HA      CSCER048
  
@YEAR DOY   DAS   DAP TMEAN TKILL  GSTD  L#SD PARID PARUD  AWAD  LAID  SAID  CAID  TWAD SDWAD  RWAD  CWAD  LWAD  SWAD  HWAD  HIAD CHWAD  EWAD RSWAD SNWPD SNWLD SNWSD  RS%D  H#AD  HWUD  T#AD  SLAD  RDPD  PTFD  SWXD WAVRD WUPRD  WFTD  WFPD  WFGD  NFTD  NFPD  NFGD NUPRD  TFPD  TFGD VRNFD DYLFD
 1981 289    10     0  12.8  -6.0  0.00  0.00  0.00  0.00   0.0  0.00 0.000  0.00    46    46     0     0     0     0     0  0.00     0     0     0     0     0     0   0.0     0     0   162   -99  0.05  0.00   3.8  99.9  1.00  0.00  0.00  0.00  0.00  0.00  0.00   0.0  0.00  0.00  1.00  0.00
 1981 290    11     1  16.1  -6.0  5.58  0.00  0.00  0.00   0.0  0.00 0.000  0.00    46    46     0     0     0     0     0  0.00     0     0     0     0     0     0   0.0     0     0   162   -99  0.05  0.00   7.0  99.9  1.00  0.00  0.00  0.00  0.00  0.00  0.00   0.0  0.00  0.00  1.00  0.00
 1981 291    12     2   9.4  -6.0  6.54  0.00  0.00  0.00   0.0  0.00 0.000  0.00    46    45     1     0     0     0     0  0.00     0     0     0     0     0     0   0.0     0     0   162   -99  0.07  0.00   7.1  99.9  1.00  0.00  0.00  0.00  0.00  0.00  0.00   0.0  0.00  0.06  0.99  0.00
 1981 292    13     3  12.2  -6.0  7.81  0.00  0.00  0.00   0.0  0.00 0.000  0.00    46    44     2     0     0     0     0  0.00     0     0     0     0     0 .0004   0.0     0     0   162   -99  0.09  0.00   6.7  99.9  1.00  0.00  0.00  0.00  0.00  0.00  0.00   1.2  0.00  0.00  0.98  0.00
 1981 293    14     4  17.5  -6.0  9.69  0.00  0.00  0.00   0.0  0.00 0.000  0.00    46    43     3     0     0     0     0  0.00     0     0     0     0     0 .0019   0.0     0     0   162   -99  0.11  0.00   9.0  99.9  1.00  0.00  0.00  0.00  0.00  0.00  0.00   1.7  0.00  0.00  0.98  0.00
 1981 294    15     5  11.7  -6.0 10.00  0.00  0.00  0.00   0.0  0.00 0.000  0.00    46    42     4     0     0     0     0  0.00     0     0     0     0     0 .0036   0.0     0     0   162   -99  0.13  0.00  10.2  99.9  1.00  0.00  0.00  0.00  0.00  0.00  0.00   2.0  0.00  0.00  0.97  0.00
 1981 295    16     6   6.2  -7.1 10.13  0.13  0.00  0.00   0.0  0.00 0.000  0.00    46    41     4     1     1     0     0  0.00     0     0     0     0     0 .0048   0.0     0     0   162   400  0.14  0.75  10.3  99.9  1.00  0.00  0.00  0.00  0.00  0.00  0.00   1.3  0.00  0.38  0.95  0.49
 1981 296    17     7   1.9  -8.5 10.17  0.17  0.00  0.90   0.1  0.00 0.000  0.00    46    40     5     1     1     0     0  0.00     0     0     0     0     0 .0053   9.6     0     0   162   399  0.14  0.75  10.1  99.9 15.00  0.00  0.00  0.00  0.00  0.00  0.00   2.0  0.61  0.81  0.93  0.49
 1981 297    18     8   6.1  -9.5 10.30  0.30  0.00  2.32   0.1  0.01 0.000  0.01    46    39     5     2     1     1     0  0.00     0     0     0     0     0 .0066   9.7     0     0   162   399  0.15  0.75  10.6  99.9 15.00  0.00  0.00  0.00  0.00  0.00  0.00   1.3  0.00  0.39  0.91  0.50
 1981 298    19     9   8.4 -10.0 10.47  0.47  0.01  2.32   0.3  0.01 0.001  0.01    47    37     6     4     3     2     0  0.00     0     0     0     0     0 .0087  10.5     0     0   162   399  0.16  0.75  13.6  99.9 15.00  0.00  0.00  0.00  0.00  0.00  0.00   0.8  0.00  0.16  0.89  0.50
 1981 299    20    10   7.8 -10.5 10.64  0.64  0.01  2.32   1.3  0.01 0.001  0.02    48    35     6     7     4     3     0  0.00     0     0     1     0     0 .0109  20.9     0     0   162   399  0.17  0.75  13.8  99.9  7.99  0.00  0.00  0.00  0.00  0.00  0.00   0.9  0.00  0.22  0.87  0.51
 1981 300    21    11  13.7 -10.4 10.93  0.93  0.02  2.32   1.8  0.02 0.002  0.03    49    31     7    12     6     6     0  0.00     0     0     3     0     0 .0150  24.0     0     0   162   399  0.19  0.75  14.8  99.9  4.90  0.00  0.00  0.00  0.00  0.00  0.00   0.4  0.00  0.00  0.87  0.51
 1981 301    22    12  16.2 -10.2 11.27  1.27  0.03  2.32   2.8  0.04 0.003  0.04    52    26     8    18     9     9     0  0.00     0     0     5     0     0 .0205  26.6     0     0   162   399  0.21  0.75  16.3  99.9  3.53  0.00  0.00  0.00  0.00  0.00  0.00   0.4  0.00  0.00  0.87  0.52
 1981 302    23    13  17.5 -10.0 11.63  1.63  0.04  2.32   4.3  0.05 0.004  0.05    56    20     9    27    13    14     0  0.00     0     0     8     0     0 .0274  30.2     0     0   162   397  0.23  0.75  18.0  99.9  2.58  0.00  0.00  0.00  0.00  0.00  0.00   0.3  0.00  0.00  0.87  0.52
 1981 303    24    14  16.1  -9.9 11.97  1.97  0.05  2.32   1.4  0.06 0.005  0.07    57    15    10    32    16    16     0  0.00     0     0     9     0     0 .0347  26.7     0     0   162   395  0.25  0.75  19.7  99.9  9.73  0.00  0.00  0.00  0.00  0.00  0.00   0.3  0.00  0.00  0.87  0.52
 1981 304    25    15  13.9  -9.8 12.13  2.13  0.06  2.11   1.0  0.07 0.006  0.07    58    12    11    35    17    17     0  0.00     0     0     9     0     0 .0416  25.6     0     0   162   395  0.27  0.74  21.6  99.9 14.92  0.00  0.00  0.00  0.09  0.09  0.09   0.7  0.00  0.00  0.87  0.53
 1981 305    26    16  12.2  -9.7 12.26  2.26  0.06  2.05   1.7  0.07 0.006  0.08    59    11    12    37    19    18     0  0.00     0     0     9     0     0 .0483  24.7     0     0   162   394  0.29  0.74  51.2  99.9  9.61  0.00  0.00  0.00  0.11  0.11  0.11   0.5  0.00  0.00  0.86  0.53
 1981 306    27    17  10.2  -9.7 12.37  2.37  0.06  1.97   1.7  0.08 0.007  0.08    61    10    12    39    20    19     0  0.00     0     0     9     0     0 .0543  23.9     0     0   162   393  0.30  0.74  52.7  99.9 12.64  0.00  0.00  0.00  0.15  0.15  0.15   1.9  0.00  0.00  0.85  0.54
 1981 307    28    18  11.4  -9.6 12.49  2.49  0.07  2.01   4.0  0.08 0.007  0.09    64    10    13    42    21    21     0  0.00     0     0    11     0     0 .0613  25.4     0     0   162   393  0.31  0.74  51.5  99.9  5.54  0.00  0.00  0.00  0.13  0.13  0.13   1.8  0.00  0.00  0.84  0.54
 1981 308    29    19  10.2  -9.6 12.60  2.60  0.07  2.04   2.5  0.09 0.008  0.09    67     9    13    44    22    22     0  0.00     0     0    11     0     0 .0680  25.0     0     0   162   392  0.32  0.74  56.6  99.9 10.04  0.00  0.00  0.00  0.12  0.12  0.12   1.9  0.00  0.00  0.83  0.54
 1981 309    30    20  10.6  -9.5 12.71  2.71  0.07  2.07   8.9  0.09 0.008  0.10    74     9    15    50    23    27     0  0.00     0     0    16     0     0 .0752  31.6     0     0   162   392  0.33  0.74  54.8  99.9  2.83  0.00  0.00  0.00  0.11  0.11  0.11   1.6  0.00  0.00  0.81  0.55
 1981 310    31    21   6.7 -10.3 12.78  2.78  0.08  2.09   9.9  0.09 0.008  0.10    83     9    16    58    23    34     0  0.00     0     0    23     0     0 .0802  39.1     0     0   162   391  0.33  0.74  50.6  99.9  3.10  0.00  0.00  0.00  0.10  0.10  0.10   2.0  0.00  0.33  0.79  0.55
 1981 311    32    22   9.7 -10.3 12.88  2.88  0.08  2.11   7.3  0.10 0.008  0.10    90     9    17    63    24    39     0  0.00     0     0    26     0     0 .0881  42.0     0     0   162   391  0.34  0.74  49.6  99.9  4.35  0.00  0.00  0.00  0.09  0.09  0.09   2.0  0.00  0.03  0.78  0.56
 1981 312    33    23  10.9 -10.2 13.00  3.00  0.08  2.13   0.9  0.10 0.009  0.11    91     9    18    64    26    38     0  0.00     0     0    25     0     0 .0976  39.9     0     0   162   390  0.35  0.75  61.1  99.9 15.00  0.00  0.00  0.00  0.08  0.08  0.08   2.0  0.00  0.00  0.77  0.56
 1981 313    34    24   2.5 -11.6 13.02  3.02  0.08  1.07   5.5  0.10 0.009  0.11    96     9    18    68    26    42     0  0.00     0     0    29     0     0 0.100  43.4     0     0   162   390  0.35  0.75  59.6  99.9  3.82  0.00  0.00  0.00  0.07  0.07  0.07   2.0  0.50  0.75  0.75  0.56
 1981 314    35    25   5.6 -12.8 13.08  3.08  0.08  2.16  10.5  0.10 0.009  0.11   105     9    20    76    26    50     0  0.00     0     0    37     0     0 0.105  48.4     0     0   162   390  0.36  0.75  54.5  99.9  3.83  0.00  0.00  0.00  0.07  0.07  0.07   2.0  0.00  0.44  0.73  0.57
 1981 315    36    26   7.5 -13.4 13.16  3.16  0.09  2.17  10.3  0.10 0.009  0.11   114     9    22    83    27    57     0  0.00     0     0    43     0     0 0.112  51.9     0     0   162   390  0.36  0.75  52.3  99.9  4.13  0.00  0.00  0.00  0.06  0.06  0.06   2.0  0.00  0.25  0.71  0.57
 1981 316    37    27  10.9 -13.2 13.27  3.27  0.09  2.18  10.3  0.11 0.010  0.12   124     9    23    91    28    63     0  0.00     0     0    49     0     0 0.124  53.6     0     0   162   389  0.37  0.75  51.1  99.9  4.11  0.00  0.00  0.00  0.06  0.06  0.06   1.6  0.00  0.00  0.70  0.57
 1981 317    38    28  10.6 -13.1 13.38  3.38  0.09  2.20  10.7  0.12 0.010  0.13   133     9    25    99    30    69     0  0.00     0     0    55     0     0 0.136  55.3     0     0   162   388  0.38  0.75  50.2  99.9  4.35  0.00  0.00  0.00  0.05  0.05  0.05   1.7  0.00  0.00  0.69  0.58
 1981 318    39    29  13.0 -13.0 13.52  3.52  0.10  2.21   8.1  0.12 0.011  0.13   140     9    26   105    31    74     0  0.00     0     0    58     0     0 0.153  55.4     0     0   162   387  0.39  0.75  50.1  99.9  5.10  0.00  0.00  0.00  0.05  0.05  0.05   1.5  0.00  0.00  0.68  0.58
 1981 319    40    30  15.0 -12.9 13.68  3.68  0.10  2.22   9.3  0.13 0.012  0.14   149     9    27   112    33    79     0  0.00     0     0    62     0     0 0.172  55.5     0     0   162   386  0.41  0.75  50.4  99.9  4.46  0.00  0.00  0.00  0.04  0.04  0.04   1.4  0.00  0.00  0.68  0.58
 1981 320    41    31  17.5 -12.7 13.86  3.86  0.11  2.23  12.7  0.14 0.012  0.15   160     9    29   122    36    86     0  0.00     0     0    68     0     0 0.196  56.1     0     0   162   385  0.42  0.75  51.0  99.9  3.31  0.00  0.00  0.00  0.04  0.04  0.04   1.2  0.00  0.00  0.68  0.59
 1981 321    42    32  12.8 -12.5 14.00  4.00  0.12  2.25  12.9  0.14 0.013  0.16   172     9    31   131    38    94     0  0.00     0     0    75     0     0 0.215  57.3     0     0   162   385  0.43  0.75  51.3  99.9  3.74  0.00  0.00  0.00  0.03  0.03  0.03   1.6  0.00  0.00  0.68  0.59
 1981 322    43    33  14.1 -12.4 14.15  4.15  0.12  2.25   8.8  0.15 0.014  0.17   180     9    32   138    40    98     0  0.00     0     0    79     0     0 0.237  57.0     0     0   162   384  0.44  0.75  51.8  99.9  5.81  0.00  0.00  0.00  0.03  0.03  0.03   1.4  0.00  0.00  0.67  0.59
 1981 323    44    34   4.1 -13.8 14.19  4.19  0.12  1.88   2.6  0.15 0.014  0.17   182     9    33   140    40   100     0  0.00     0     0    80     0 0.219 0.243  57.6     0     0   162   384  0.45  0.75  51.8  99.9 15.00  0.00  0.00  0.00  0.02  0.02  0.02   2.0  0.17  0.59  0.65  0.60
 1981 324    45    35   0.0 -15.2 14.19  4.19  0.12  0.00   0.0  0.15 0.014  0.17   182     9    33   140    40   100     0  0.00     0     0    80     0 0.219 0.243  57.6     0     0   162   384  0.45  0.75  51.1  99.9  8.74  0.00  0.00  0.00  0.02  0.02  0.02   2.0  1.00  1.00  0.63  0.60
 1981 325    46    36   2.5 -16.6 14.22  4.22  0.12  1.13   7.0  0.15 0.014  0.17   188     9    34   145    40   105     0  0.00     0     0    86     0 0.351 0.248  59.1     0     0   162   383  0.45  0.75  50.5  99.9  5.23  0.00  0.00  0.00  0.02  0.02  0.02   2.0  0.50  0.75  0.61  0.60
 1981 326    47    37   7.0 -17.4 14.29  4.29  0.12  2.27   9.6  0.15 0.014  0.17   196     9    35   152    40   112     0  0.00     0     0    92     0 0.718 0.259  60.7     0     0   162   383  0.45  0.75  50.5  99.9  6.80  0.00  0.00  0.00  0.02  0.02  0.02   2.0  0.00  0.30  0.59  0.61
 1981 327    48    38  10.6 -17.3 14.40  4.40  0.12  2.28  12.6  0.16 0.014  0.17   207     9    37   161    41   120     0  0.00     0     0   100     0 1.276 0.278  62.0     0     0   162   382  0.46  0.75  51.0  99.9  5.10  0.00  0.00  0.00  0.02  0.02  0.02   2.0  0.00  0.00  0.58  0.61
 1981 328    49    39   6.4 -18.3 14.47  4.47  0.12  2.28  11.3  0.16 0.014  0.17   217     9    39   169    41   128     0  0.00     0     0   108     0 1.615 0.290  63.7     0     0   162   382  0.47  0.75  51.0  99.9  6.61  0.00  0.00  0.00  0.02  0.02  0.02   2.0  0.00  0.36  0.56  0.61
 1981 329    50    40  12.2 -18.1 14.60  4.60  0.13  2.29  12.1  0.16 0.015  0.18   227     9    41   177    42   135     0  0.00     0     0   114     0 2.262 0.313  64.5     0     0   162   381  0.48  0.75  51.6  99.9  5.58  0.00  0.00  0.00  0.01  0.01  0.01   1.9  0.00  0.00  0.55  0.61
 1981 330    51    41   6.7 -19.1 14.67  4.67  0.13  2.29   9.1  0.16 0.015  0.18   235     9    42   184    42   142     0  0.00     0     0   121     0 2.615 0.327  65.5     0     0   171   381  0.48  0.75  51.8  99.9  9.20  0.00  0.00  0.00  0.01  0.01  0.01   2.0  0.00  0.33  0.53  0.62
 1981 331    52    42  -0.8 -20.0 14.67  4.67  0.13  0.00   0.0  0.16 0.015  0.18   235     9    42   184    42   142     0  0.00     0     0   121     0 2.615 0.327  65.5     0     0   171   381  0.48  0.75  51.4  99.9 12.76  0.00  0.00  0.00  0.01  0.01  0.01   2.0  1.00  1.00  0.51  0.62
 1981 332    53    43   2.5 -20.0 14.69  4.69  0.13  1.15   4.0  0.16 0.015  0.18   238     9    42   187    42   144     0  0.00     0     0   124     0 2.748 0.332  66.1     0     0   174   380  0.48  0.76  51.2  99.9 12.27  0.00  0.00  0.00  0.01  0.01  0.01   2.0  0.50  0.75  0.49  0.62
 1981 333    54    44   3.0 -20.0 14.73  4.73  0.13  1.40   4.1  0.16 0.015  0.18   242     9    43   190    42   147     0  0.00     0     0   127     0 2.910 0.339  66.7     0     0   178   380  0.49  0.76  51.1  99.9 14.15  0.00  0.00  0.00  0.01  0.01  0.01   2.0  0.39  0.70  0.47  0.62
 1981 334    55    45   5.9 -20.0 14.79  4.79  0.13  2.30   1.0  0.16 0.015  0.18   243     9    43   190    42   148     0  0.00     0     0   127     0 3.221 0.351  66.6     0     0   186   380  0.49  0.76  70.1  99.9 15.00  0.00  0.00  0.00  0.01  0.01  0.01   2.0  0.00  0.41  0.45  0.63
 1981 335    56    46   2.2 -20.0 14.81  4.81  0.13  1.01   1.8  0.16 0.015  0.18   244     9    43   191    42   149     0  0.00     0     0   128     0 3.339 0.356  66.9     0     0   189   380  0.49  0.76  79.2  99.9 15.00  0.00  0.00  0.00  0.01  0.01  0.01   2.0  0.56  0.78  0.43  0.63
 1981 336    57    47   3.6 -20.0 14.85  4.85  0.13  1.66   8.5  0.16 0.015  0.18   252     9    45   198    42   155     0  0.00     0     0   134     0 3.530 0.364  67.9     0     0   194   380  0.50  0.76  73.0  99.9  9.20  0.00  0.00  0.00  0.01  0.01  0.01   2.0  0.28  0.64  0.41  0.63
 1981 337    58    48   4.5 -20.0 14.90  4.90  0.13  2.05  12.9  0.16 0.015  0.18   263     9    47   207    42   165     0  0.00     0     0   144     0 3.767 0.374  69.4     0     0   200   380  0.50  0.76  70.0  99.9  7.57  0.00  0.00  0.00  0.01  0.01  0.01   2.0  0.11  0.55  0.39  0.63
 1981 338    59    49   3.9 -20.0 14.94  4.94  0.13  1.80  11.4  0.16 0.015  0.18   273     9    48   216    42   173     0  0.00     0     0   152     0 3.975 0.383  70.6     0     0   206   380  0.50  0.76  68.7  99.9  8.04  0.00  0.00  0.00  0.00  0.00  0.00   2.0  0.22  0.61  0.37  0.64
 1981 339    60    50   3.9 -20.0 14.98  4.98  0.13  1.80   4.0  0.16 0.015  0.18   276     9    49   218    43   176     0  0.00     0     0   155     0 4.182 0.392  70.9     0     0   211   379  0.51  0.76  68.5  99.9 15.00  0.00  0.00  0.00  0.00  0.00  0.00   2.0  0.22  0.61  0.35  0.64
 1981 340    61    51   8.9 -20.0 15.07  5.07  0.13  2.31  10.2  0.17 0.015  0.18   285     9    50   226    44   182     0  0.00     0     0   160     0 4.656 0.414  71.1     0     0   223   379  0.51  0.76  68.5  99.9 10.46  0.00  0.00  0.00  0.00  0.00  0.00   2.0  0.00  0.11  0.33  0.64
 1981 341    62    52  11.7 -20.0 15.19  5.19  0.14  2.31  13.6  0.17 0.016  0.19   297     9    52   235    45   190     0  0.00     0     0   167     0 5.550 0.443  71.1     0     0   239   377  0.52  0.76  67.8  99.9  7.59  0.00  0.00  0.00  0.00  0.00  0.00   2.0  0.00  0.00  0.32  0.64
 1981 342    63    53   3.7 -20.0 15.23  5.23  0.14  1.69   9.0  0.17 0.016  0.19   304     9    54   242    45   196     0  0.00     0     0   174     0 5.829 0.453  71.9     0     0   244   377  0.53  0.76  66.8  99.9 10.78  0.00  0.00  0.00  0.00  0.00  0.00   2.0  0.27  0.63  0.30  0.64
 1981 343    64    54   2.2 -20.0 15.26  5.26  0.14  1.04   6.1  0.17 0.016  0.19   310     9    54   246    45   201     0  0.00     0     0   178     0 6.002 0.459  72.5     0     0   247   377  0.53  0.76  65.7  99.9 10.80  0.00  0.00  0.00  0.00  0.00  0.00   2.0  0.55  0.77  0.28  0.64
 1981 344    65    55  -0.3 -20.0 15.26  5.26  0.14  0.00   0.0  0.17 0.016  0.19   310     9    54   246    45   201     0  0.00     0     0   178     0 6.002 0.459  72.5     0     0   247   377  0.53  0.76  65.6  99.9 15.00  0.00  0.00  0.00  0.00  0.00  0.00   2.0  1.00  1.00  0.26  0.65
 1981 345    66    56   2.5 -20.0 15.28  5.28  0.13  1.16   1.4  0.17 0.016  0.19   311     9    55   247    45   202     0  0.00     0     0   179     0 6.194 0.466  72.6     0     0   250   377  0.53  0.76  65.6  99.9 15.00  0.00  0.00  0.00  0.00  0.00  0.00   2.0  0.50  0.75  0.24  0.65
 1981 346    67    57   2.8 -20.0 15.31  5.31  0.13  1.30   1.4  0.17 0.016  0.19   312     9    55   248    45   203     0  0.00     0     0   180     0 6.408 0.473  72.8     0     0   254   376  0.53  0.76  65.7  99.9 15.00  0.00  0.00  0.00  0.00  0.00  0.00   2.0  0.44  0.72  0.22  0.65
 1981 347    68    58   2.5 -20.0 15.34  5.34  0.13  1.16   1.0  0.17 0.016  0.19   313     9    55   248    45   203     0  0.00     0     0   181     0 6.600 0.480  72.9     0     0   258   376  0.53  0.76  65.8  99.9 15.00  0.00  0.00  0.00  0.00  0.00  0.00   2.0  0.50  0.75  0.20  0.65
 1981 348    69    59   0.5 -20.0 15.34  5.34  0.13  0.25   1.4  0.17 0.016  0.19   314     9    55   249    45   204     0  0.00     0     0   182     0 6.642 0.482  73.0     0     0   258   376  0.54  0.76  65.7  99.9 15.00  0.00  0.00  0.00  0.00  0.00  0.00   2.0  0.89  0.94  0.18  0.65
 1981 349    70    60   0.0 -20.0 15.34  5.34  0.13  0.00   0.0  0.17 0.016  0.19   314     9    55   249    45   204     0  0.00     0     0   182     0 6.642 0.482  73.0     0     0   258   376  0.54  0.76  65.4  99.9 15.00  0.00  0.00  0.00  0.00  0.00  0.00   2.0  1.00  1.00  0.16  0.65
 1981 350    71    61  -4.7 -20.0 15.34  5.34  0.13  0.00   0.0  0.17 0.016  0.19   314     9    55   249    45   204     0  0.00     0     0   182     0 6.642 0.482  73.0     0     0   258   376  0.54  0.76  65.4  99.9 15.00  0.00  0.00  0.00  0.00  0.00  0.00   2.0  1.00  1.00  0.16  0.65
 1981 351    72    62 -12.5 -20.0 15.34  5.34  0.07  0.00   0.0  0.08 0.008  0.09   190     9    55   125    23   103     0  0.00     0     0    91     0 39.87 0.482  72.8     0     0   258   376  0.54  0.76  65.4  99.9 15.00  0.00  0.00  0.00  0.00  0.00  0.00   2.0  1.00  1.00  0.14  0.65
 1981 352    73    63 -13.6 -20.0 15.34  5.34  0.02  0.00   0.0  0.02 0.002  0.03   100     9    55    36     6    29     0  0.00     0     0    26     0 63.79 0.482  71.5     0     0   258   376  0.54  0.76  65.3  99.9 15.00  0.00  0.00  0.00  0.00  0.00  0.00   2.0  1.00  1.00  0.12  0.65
 1981 353    74    64 -11.4 -20.0 15.34  5.34  0.01  0.00   0.0  0.02 0.002  0.02    90     9    55    26     5    21     0  0.00     0     0    18     0 66.40 0.482  70.8     0     0   258   376  0.54  0.76  65.2  99.9 15.00  0.00  0.00  0.00  0.00  0.00  0.00   2.0  1.00  1.00  0.10  0.65
 1981 354    75    65  -4.2 -20.0 15.34  5.34  0.01  0.00   0.0  0.02 0.002  0.02    90     9    55    26     5    21     0  0.00     0     0    18     0 66.40 0.482  70.8     0     0   258   376  0.54  0.76  67.8  99.9 15.00  0.00  0.00  0.00  0.00  0.00  0.00   2.0  1.00  1.00  0.08  0.65
 1981 355    76    66   2.0 -20.0 15.36  5.36  0.01  0.90   0.1  0.02 0.002  0.02    90     9    55    26     5    21     0  0.00     0     0    18     0 66.40 0.487  70.3     0     0   261   376  0.54  0.76  70.0  99.9 15.00  0.00  0.00  0.00  0.00  0.00  0.00   2.0  0.61  0.81  0.06  0.65
 1981 356    77    67   1.7 -20.0 15.38  5.38  0.01  0.79   0.1  0.02 0.002  0.02    90     9    55    26     5    21     0  0.00     0     0    18     0 66.40 0.492  69.9     0     0   263   375  0.54  0.76  70.0  99.9 15.00  0.00  0.00  0.00  0.00  0.00  0.00   2.0  0.66  0.83  0.04  0.65
 1981 357    78    68  -1.1 -20.0 15.38  5.38  0.01  0.00   0.0  0.02 0.002  0.02    90     9    55    26     5    21     0  0.00     0     0    18     0 66.40 0.492  69.9     0     0   263   375  0.54  0.76  68.7  99.9 15.00  0.00  0.00  0.00  0.00  0.00  0.00   2.0  1.00  1.00  0.02  0.65
 1981 358    79    69  -0.3 -20.0 15.38  5.38  0.01  0.00   0.0  0.02 0.002  0.02    90     9    55    26     5    21     0  0.00     0     0    18     0 66.40 0.492  69.9     0     0   263   375  0.54  0.76  67.3  99.9 15.00  0.00  0.00  0.00  0.00  0.00  0.00   2.0  1.00  1.00  0.00  0.65
 1981 359    80    70   1.6 -20.0 15.40  5.40  0.02  0.76   0.4  0.02 0.002  0.02    91     9    55    26     5    22     0  0.00     0     0    18     0 66.40 0.496  69.8     0     0   266   375  0.54  0.76  66.5  99.9 15.00  0.00  0.00  0.00  0.00  0.00  0.00   2.0  0.67  0.84  0.00  0.65
 1981 360    81    71  -1.7 -20.0 15.40  5.40  0.02  0.00   0.0  0.02 0.002  0.02    91     9    55    26     5    22     0  0.00     0     0    18     0 66.40 0.496  69.8     0     0   266   375  0.54  0.76  65.9  99.9 15.00  0.00  0.00  0.00  0.00  0.00  0.00   2.0  1.00  1.00  0.00  0.65
 1981 361    82    72  -3.1 -20.0 15.40  5.40  0.02  0.00   0.0  0.02 0.002  0.02    91     9    55    26     5    22     0  0.00     0     0    18     0 66.40 0.496  69.8     0     0   266   375  0.54  0.76  65.8  99.9 15.00  0.00  0.00  0.00  0.00  0.00  0.00   2.0  1.00  1.00  0.00  0.65
 1981 362    83    73  -4.4 -20.0 15.40  5.40  0.02  0.00   0.0  0.02 0.002  0.02    91     9    55    26     5    22     0  0.00     0     0    18     0 66.40 0.496  69.8     0     0   266   375  0.54  0.76  65.5  99.9 15.00  0.00  0.00  0.00  0.00  0.00  0.00   2.0  1.00  1.00  0.00  0.65
 1981 363    84    74  -3.6 -20.0 15.40  5.40  0.02  0.00   0.0  0.02 0.002  0.02    91     9    55    26     5    22     0  0.00     0     0    18     0 66.40 0.496  69.8     0     0   266   375  0.54  0.76  64.9  99.9 15.00  0.00  0.00  0.00  0.00  0.00  0.00   2.0  1.00  1.00  0.00  0.65
 1981 364    85    75   1.7 -20.0 15.42  5.42  0.02  0.79   0.4  0.02 0.002  0.02    91     9    55    27     5    22     0  0.00     0     0    19     0 66.40 0.501  69.7     0     0   268   375  0.54  0.76  64.2  99.9 15.00  0.00  0.00  0.00  0.00  0.00  0.00   2.0  0.66  0.83  0.00  0.65
 1981 365    86    76   0.0 -20.0 15.42  5.42  0.02  0.00   0.0  0.02 0.002  0.02    91     9    55    27     5    22     0  0.00     0     0    19     0 66.40 0.501  69.7     0     0   268   375  0.54  0.76  63.4  99.9 15.00  0.00  0.00  0.00  0.00  0.00  0.00   2.0  1.00  1.00  0.00  0.65
 1982   1    87    77  -6.1 -20.0 15.42  5.42  0.02  0.00   0.0  0.02 0.002  0.02    91     9    55    27     5    22     0  0.00     0     0    19     0 66.40 0.501  69.7     0     0   268   375  0.54  0.76  63.3  99.9 15.00  0.00  0.00  0.00  0.00  0.00  0.00   2.0  1.00  1.00  0.00  0.65
 1982   2    88    78   0.8 -20.0 15.43  5.43  0.02  0.39   0.0  0.02 0.002  0.02    91     9    55    27     5    22     0  0.00     0     0    19     0 66.40 0.503  69.6     0     0   269   374  0.54  0.76  65.3  99.9 15.00  0.00  0.00  0.00  0.00  0.00  0.00   2.0  0.83  0.92  0.00  0.65
 1982   3    89    79  -6.3 -20.0 15.43  5.43  0.02  0.00   0.0  0.02 0.002  0.02    91     9    55    27     5    22     0  0.00     0     0    19     0 66.40 0.503  69.6     0     0   269   374  0.54  0.76  65.3  99.9 15.00  0.00  0.00  0.00  0.00  0.00  0.00   2.0  1.00  1.00  0.00  0.65
 1982   4    90    80  -6.1 -20.0 15.43  5.43  0.02  0.00   0.0  0.02 0.002  0.02    91     9    55    27     5    22     0  0.00     0     0    19     0 66.40 0.503  69.6     0     0   269   374  0.54  0.76  70.2  99.9 15.00  0.00  0.00  0.00  0.00  0.00  0.00   2.0  1.00  1.00  0.00  0.64
 1982   5    91    81  -1.6 -20.0 15.43  5.43  0.02  0.00   0.0  0.02 0.002  0.02    91     9    55    27     5    22     0  0.00     0     0    19     0 66.40 0.503  69.6     0     0   269   374  0.54  0.76  68.9  99.9 15.00  0.00  0.00  0.00  0.00  0.00  0.00   2.0  1.00  1.00  0.00  0.64
 1982   6    92    82 -10.9 -20.0 15.43  5.43  0.01  0.00   0.0  0.02 0.002  0.02    87     9    55    22     4    18     0  0.00     0     0    15     0 67.63 0.503  69.1     0     0   269   374  0.54  0.76  68.9  99.9 15.00  0.00  0.00  0.00  0.00  0.00  0.00   2.0  1.00  1.00  0.00  0.64
 1982   7    93    83 -11.4 -20.0 15.43  5.43  0.01  0.00   0.0  0.01 0.001  0.01    81     9    55    16     3    13     0  0.00     0     0    11     0 69.32 0.503  68.1     0     0   269   374  0.54  0.76  68.8  99.9 15.00  0.00  0.00  0.00  0.00  0.00  0.00   2.0  1.00  1.00  0.00  0.64
 1982   8    94    84  -2.8 -20.0 15.43  5.43  0.01  0.00   0.0  0.01 0.001  0.01    81     9    55    16     3    13     0  0.00     0     0    11     0 69.32 0.503  68.1     0     0   269   374  0.54  0.76  67.7  99.9 15.00  0.00  0.00  0.00  0.00  0.00  0.00   2.0  1.00  1.00  0.00  0.64
 1982   9    95    85  -8.4 -20.0 15.43  5.43  0.01  0.00   0.0  0.01 0.001  0.01    81     9    55    16     3    13     0  0.00     0     0    11     0 69.32 0.503  68.1     0     0   269   374  0.54  0.76  67.6  99.9 15.00  0.00  0.00  0.00  0.00  0.00  0.00   2.0  1.00  1.00  0.00  0.64
 1982  10    96    86 -18.6 -20.0 15.43  5.43  0.00  0.00   0.0  0.00 0.000  0.00    67     9    55     2     0     2     0  0.00     0     0     1     0 73.28 0.503  43.2     0     0   269   374  0.54  0.76  67.6  99.9 15.00  0.00  0.00  0.00  0.00  0.00  0.00   2.0  1.00  1.00  0.00  0.63
 1982  11    97    87 -13.4 -20.0 15.43  5.43  0.00  0.00   0.0  0.00 0.000  0.00    67     9    55     2     0     2     0  0.00     0     0     1     0 73.28 0.503  43.2     0     0   269   374  0.54  0.76  67.5  99.9 15.00  0.00  0.00  0.00  0.00  0.00  0.00   2.0  1.00  1.00  0.00  0.63
 1982  12    98    88  -9.1 -20.0 15.43  5.43  0.00  0.00   0.0  0.00 0.000  0.00    67     9    55     2     0     2     0  0.00     0     0     1     0 73.28 0.503  43.2     0     0   269   374  0.54  0.76  67.5  99.9 15.00  0.00  0.00  0.00  0.00  0.00  0.00   2.0  1.00  1.00  0.00  0.63
 1982  13    99    89 -14.5 -20.0 15.43  5.43  0.00  0.00   0.0  0.00 0.000  0.00    67     9    55     2     0     2     0  0.00     0     0     1     0 73.28 0.503  43.2     0     0   269   374  0.54  0.76  67.4  99.9 15.00  0.00  0.00  0.00  0.00  0.00  0.00   2.0  1.00  1.00  0.00  0.63
 1982  14   100    90  -3.0 -20.0 15.43  5.43  0.00  0.00   0.0  0.00 0.000  0.00    67     9    55     2     0     2     0  0.00     0     0     1     0 73.28 0.503  43.2     0     0   269   374  0.54  0.76  68.9  99.9 15.00  0.00  0.00  0.00  0.00  0.00  0.00   2.0  1.00  1.00  0.00  0.63
 1982  15   101    91  -1.4 -20.0 15.43  5.43  0.00  0.00   0.0  0.00 0.000  0.00    67     9    55     2     0     2     0  0.00     0     0     1     0 73.28 0.503  43.2     0     0   269   374  0.54  0.76  68.1  99.9 15.00  0.00  0.00  0.00  0.00  0.00  0.00   2.0  1.00  1.00  0.00  0.62
 1982  16   102    92 -14.1 -20.0 15.43  5.43  0.00  0.00   0.0  0.00 0.000  0.00    67     9    55     2     0     2     0  0.00     0     0     1     0 73.28 0.503  43.2     0     0   269   374  0.54  0.76  68.0  99.9 15.00  0.00  0.00  0.00  0.00  0.00  0.00   2.0  1.00  1.00  0.00  0.62
 1982  17   103    93  -8.7 -20.0 15.43  5.43  0.00  0.00   0.0  0.00 0.000  0.00    67     9    55     2     0     2     0  0.00     0     0     1     0 73.28 0.503  43.2     0     0   269   374  0.54  0.76  67.8  99.9 15.00  0.00  0.00  0.00  0.00  0.00  0.00   2.0  1.00  1.00  0.00  0.62
 1982  18   104    94   0.3 -20.0 15.43  5.43  0.00  0.14   0.0  0.00 0.000  0.00    67     9    55     2     0     2     0  0.00     0     0     1     0 73.28 0.504  43.2     0     0   269   374  0.54  0.76  66.5  99.9 15.00  0.00  0.00  0.00  0.00  0.00  0.00   2.0  0.94  0.97  0.00  0.62
 1982  19   105    95  -0.6 -20.0 15.43  5.43  0.00  0.00   0.0  0.00 0.000  0.00    67     9    55     2     0     2     0  0.00     0     0     1     0 73.28 0.504  43.2     0     0   269   374  0.54  0.76  65.5  99.9 15.00  0.00  0.00  0.00  0.00  0.00  0.00   2.0  1.00  1.00  0.00  0.61
 1982  20   106    96  -3.3 -20.0 15.43  5.43  0.00  0.00   0.0  0.00 0.000  0.00    67     9    55     2     0     2     0  0.00     0     0     1     0 73.28 0.504  43.2     0     0   269   374  0.54  0.76  65.4  99.9 15.00  0.00  0.00  0.00  0.00  0.00  0.00   2.0  1.00  1.00  0.00  0.61
 1982  21   107    97  -5.0 -20.0 15.43  5.43  0.00  0.00   0.0  0.00 0.000  0.00    67     9    55     2     0     2     0  0.00     0     0     1     0 73.28 0.504  43.2     0     0   269   374  0.54  0.76  65.4  99.9 15.00  0.00  0.00  0.00  0.00  0.00  0.00   2.0  1.00  1.00  0.00  0.61
 1982  22   108    98  -2.2 -20.0 15.43  5.43  0.00  0.00   0.0  0.00 0.000  0.00    67     9    55     2     0     2     0  0.00     0     0     1     0 73.28 0.504  43.2     0     0   269   374  0.54  0.76  67.0  99.9 15.00  0.00  0.00  0.00  0.00  0.00  0.00   2.0  1.00  1.00  0.00  0.60
 1982  23   109    99 -10.9 -20.0 15.43  5.43  0.00  0.00   0.0  0.00 0.000  0.00    67     9    55     2     0     2     0  0.00     0     0     1     0 73.28 0.504  43.0     0     0   269   374  0.54  0.76  66.9  99.9 15.00  0.00  0.00  0.00  0.00  0.00  0.00   2.0  1.00  1.00  0.00  0.60
 1982  24   110   100  -7.5 -20.0 15.43  5.43  0.00  0.00   0.0  0.00 0.000  0.00    67     9    55     2     0     2     0  0.00     0     0     1     0 73.28 0.504  43.0     0     0   269   374  0.54  0.76  66.6  99.9 15.00  0.00  0.00  0.00  0.00  0.00  0.00   2.0  1.00  1.00  0.00  0.60
 1982  25   111   101  -1.1 -20.0 15.43  5.43  0.00  0.00   0.0  0.00 0.000  0.00    67     9    55     2     0     2     0  0.00     0     0     1     0 73.28 0.504  43.0     0     0   269   374  0.54  0.76  71.2  99.9 15.00  0.00  0.00  0.00  0.00  0.00  0.00   2.0  1.00  1.00  0.00  0.59
 1982  26   112   102   1.4 -20.0 15.44  5.44  0.00  0.65   0.0  0.00 0.000  0.00    67     9    55     2     0     2     0  0.00     0     0     1     0 73.28 0.508  39.7     0     0   271   371  0.54  0.76  75.5  99.9 15.00  0.00  0.00  0.00  0.00  0.00  0.00   2.0  0.72  0.86  0.00  0.59
 1982  27   113   103   8.1 -20.0 15.53  5.53  0.00  2.32   0.1  0.00 0.000  0.00    67     9    55     2     0     2     0  0.00     0     0     1     0 73.28 0.530  34.4     0     0   282   367  0.55  0.76  74.3  99.9 15.00  0.00  0.00  0.00  0.00  0.00  0.00   2.0  0.00  0.19  0.00  0.59
 1982  28   114   104   0.0 -20.0 15.53  5.53  0.00  0.00   0.0  0.00 0.000  0.00    67     9    55     2     0     2     0  0.00     0     0     1     0 73.28 0.530  34.4     0     0   282   366  0.55  0.76  72.9  99.9 15.00  0.00  0.00  0.00  0.00  0.00  0.00   2.0  1.00  1.00  0.00  0.58
 1982  29   115   105   5.2 -20.0 15.58  5.58  0.00  2.32   0.0  0.00 0.000  0.00    67     9    55     2     0     2     0  0.00     0     0     1     0 73.28 0.545  30.8     0     0   290   365  0.55  0.76  73.3  99.9 15.00  0.00  0.00  0.00  0.00  0.00  0.00   2.0  0.00  0.48  0.00  0.58
 1982  30   116   106   0.0 -20.0 15.58  5.58  0.00  0.00   0.0  0.00 0.000  0.00    67     9    55     2     0     2     0  0.00     0     0     1     0 73.28 0.545  30.8     0     0   290   365  0.55  0.76  77.9  99.9 15.00  0.00  0.00  0.00  0.00  0.00  0.00   2.0  1.00  1.00  0.00  0.58
 1982  31   117   107  -7.2 -20.0 15.58  5.58  0.00  0.00   0.0  0.00 0.000  0.00    67     9    55     2     0     2     0  0.00     0     0     1     0 73.28 0.545  30.8     0     0   290   365  0.55  0.76  77.7  99.9 15.00  0.00  0.00  0.00  0.00  0.00  0.00   2.0  1.00  1.00  0.00  0.57
 1982  32   118   108  -1.9 -20.0 15.58  5.58  0.00  0.00   0.0  0.00 0.000  0.00    67     9    55     2     0     2     0  0.00     0     0     1     0 73.28 0.545  30.8     0     0   290   365  0.55  0.76  77.2  99.9 15.00  0.00  0.00  0.00  0.00  0.00  0.00   2.0  1.00  1.00  0.00  0.57
 1982  33   119   109  -3.9 -20.0 15.58  5.58  0.00  0.00   0.0  0.00 0.000  0.00    67     9    55     2     0     2     0  0.00     0     0     1     0 73.28 0.545  30.8     0     0   290   365  0.55  0.76  77.0  99.9 15.00  0.00  0.00  0.00  0.00  0.00  0.00   2.0  1.00  1.00  0.00  0.57
 1982  34   120   110 -13.0 -20.0 15.58  5.58  0.00  0.00   0.0  0.00 0.000  0.00    66     9    55     2     0     1     0  0.00     0     0     0     0 73.59 0.545  23.9     0     0   290   365  0.55  0.76  77.0  99.9 15.00  0.00  0.00  0.00  0.00  0.00  0.00   2.0  1.00  1.00  0.00  0.56
 1982  35   121   111 -17.0 -20.0 15.58  5.58  0.00  0.00   0.0  0.00 0.000  0.00    66     9    55     2     0     1     0  0.00     0     0     0     0 73.59 0.545  23.9     0     0   290   365  0.55  0.76  77.0  99.9 15.00  0.00  0.00  0.00  0.00  0.00  0.00   2.0  1.00  1.00  0.00  0.56
 1982  36   122   112 -15.5 -20.0 15.58  5.58  0.00  0.00   0.0  0.00 0.000  0.00    66     9    55     2     0     1     0  0.00     0     0     0     0 73.59 0.545  23.9     0     0   290   365  0.55  0.76  76.9  99.9 15.00  0.00  0.00  0.00  0.00  0.00  0.00   2.0  1.00  1.00  0.00  0.56
 1982  37   123   113 -13.8 -20.0 15.58  5.58  0.00  0.00   0.0  0.00 0.000  0.00    66     9    55     2     0     1     0  0.00     0     0     0     0 73.59 0.545  23.9     0     0   290   365  0.55  0.76  76.7  99.9 15.00  0.00  0.00  0.00  0.00  0.00  0.00   2.0  1.00  1.00  0.00  0.55
 1982  38   124   114  -6.4 -20.0 15.58  5.58  0.00  0.00   0.0  0.00 0.000  0.00    66     9    55     2     0     1     0  0.00     0     0     0     0 73.59 0.545  23.9     0     0   290   365  0.55  0.76  78.1  99.9 15.00  0.00  0.00  0.00  0.00  0.00  0.00   2.0  1.00  1.00  0.00  0.55
 1982  39   125   115  -8.1 -20.0 15.58  5.58  0.00  0.00   0.0  0.00 0.000  0.00    66     9    55     2     0     1     0  0.00     0     0     0     0 73.59 0.545  23.9     0     0   290   365  0.55  0.76  78.1  99.9 15.00  0.00  0.00  0.00  0.00  0.00  0.00   2.0  1.00  1.00  0.00  0.54
 1982  40   126   116 -14.4 -20.0 15.58  5.58  0.00  0.00   0.0  0.00 0.000  0.00    66     9    55     2     0     1     0  0.00     0     0     0     0 73.59 0.545  23.9     0     0   290   365  0.55  0.76  78.0  99.9 15.00  0.00  0.00  0.00  0.00  0.00  0.00   2.0  1.00  1.00  0.00  0.54
 1982  41   127   117 -11.6 -20.0 15.58  5.58  0.00  0.00   0.0  0.00 0.000  0.00    66     9    55     2     0     1     0  0.00     0     0     0     0 73.59 0.545  23.9     0     0   290   365  0.55  0.76  77.8  99.9 15.00  0.00  0.00  0.00  0.00  0.00  0.00   2.0  1.00  1.00  0.00  0.54
 1982  42   128   118  -8.9 -20.0 15.58  5.58  0.00  0.00   0.0  0.00 0.000  0.00    66     9    55     2     0     1     0  0.00     0     0     0     0 73.59 0.545  23.9     0     0   290   365  0.55  0.76  77.5  99.9 15.00  0.00  0.00  0.00  0.00  0.00  0.00   2.0  1.00  1.00  0.00  0.53
 1982  43   129   119  -2.2 -20.0 15.58  5.58  0.00  0.00   0.0  0.00 0.000  0.00    66     9    55     2     0     1     0  0.00     0     0     0     0 73.59 0.545  23.9     0     0   290   365  0.55  0.76  87.1  99.9 15.00  0.00  0.00  0.00  0.00  0.00  0.00   2.0  1.00  1.00  0.00  0.53
 1982  44   130   120  -4.1 -20.0 15.58  5.58  0.00  0.00   0.0  0.00 0.000  0.00    66     9    55     2     0     1     0  0.00     0     0     0     0 73.59 0.545  23.9     0     0   290   365  0.55  0.76  85.8  99.9 15.00  0.00  0.00  0.00  0.00  0.00  0.00   2.0  1.00  1.00  0.00  0.52
 1982  45   131   121   2.8 -20.0 15.61  5.61  0.00  1.30   0.1  0.00 0.000  0.00    66     9    55     2     0     1     0  0.00     0     0     0     0 73.59 0.553  20.9     0     0   293   363  0.56  0.76  85.3  99.9 15.00  0.00  0.00  0.00  0.00  0.00  0.00   2.0  0.44  0.72  0.00  0.52
 1982  46   132   122   4.7 -20.0 15.66  5.66  0.00  2.18   0.0  0.00 0.000  0.00    66     9    55     2     0     1     0  0.00     0     0     0     0 73.59 0.566  18.4     0     0   300   362  0.56  0.76  80.0  99.9 15.00  0.00  0.00  0.00  0.00  0.00  0.00   2.0  0.06  0.53  0.00  0.52
 1982  47   133   123   3.6 -20.0 15.70  5.70  0.00  1.67   0.0  0.00 0.000  0.00    66     9    55     2     0     1     0  0.00     0     0     0     0 73.59 0.575  16.4     0     0   305   361  0.56  0.76  79.2  99.9 15.00  0.00  0.00  0.00  0.00  0.00  0.00   2.0  0.28  0.64  0.00  0.51
 1982  48   134   124   2.5 -20.0 15.73  5.73  0.00  1.16   0.0  0.00 0.000  0.00    66     9    55     2     0     1     0  0.00     0     0     0     0 73.59 0.582  14.7     0     0   308   361  0.57  0.76  78.2  99.9 15.00  0.00  0.00  0.00  0.00  0.00  0.00   2.0  0.50  0.75  0.00  0.51
 1982  49   135   125   7.0 -20.0 15.80  5.80  0.00  2.32   0.2  0.00 0.000  0.00    66     9    55     2     1     1     0  0.00     0     0     0     0 73.59 0.602  12.4     0     0   318   360  0.57  0.76  80.9  99.9 15.00  0.00  0.00  0.00  0.00  0.00  0.00   2.0  0.00  0.30  0.00  0.50
 1982  50   136   126   8.9 -20.0 21.04  5.89  0.00  2.32   0.3  0.00 0.000  0.00    67     9    55     2     1     1     0  0.00     0     0     0     0 73.59 0.626  10.1     0     0   330   358  0.58  0.76  77.9  99.9 15.00  0.00  0.00  0.00  0.00  0.00  0.00   2.0  0.00  0.11  0.00  0.50
 1982  51   137   127  11.1 -20.0 21.13  6.01  0.00  2.32   0.4  0.00 0.001  0.00    67     9    55     2     1     2     0  0.00     0     0     0     0 73.59 0.657   8.1     0     0   345   357  0.59  0.76  77.0  99.9 15.00  0.00  0.00  0.00  0.00  0.00  0.00   2.0  0.00  0.00  0.00  0.49
 1982  52   138   128  10.0 -20.0 21.21  6.12  0.00  2.32   0.5  0.00 0.001  0.00    67     9    55     3     1     2     0  0.00     0     0     0     0 73.59 0.684   6.5     0     0   358   354  0.60  0.76  75.7  99.9 15.00  0.00  0.00  0.00  0.00  0.00  0.00   2.0  0.00  0.00  0.00  0.49
 1982  53   139   129  12.2 -20.0 21.32  6.25  0.00  2.32   0.6  0.01 0.001  0.01    68     9    55     3     2     2     0  0.00     0     0     0     0 73.59 0.718   5.1     0     0   375   352  0.61  0.76  75.2  99.9 15.00  0.00  0.00  0.00  0.00  0.00  0.00   2.0  0.00  0.00  0.00  0.49
 1982  54   140   130   9.4 -20.0 21.40  6.35  0.00  2.32   0.1  0.01 0.001  0.01    68     9    55     3     2     2     0  0.00     0     0     0     0 73.59 0.745   4.5     0     0   388   352  0.61  0.76  75.4  99.9 15.00  0.00  0.00  0.00  0.00  0.00  0.00   2.0  0.00  0.06  0.00  0.48
 1982  55   141   131   3.3 -20.0 21.42  6.38  0.01  1.55   0.6  0.01 0.001  0.01    68     9    55     4     2     2     0  0.00     0     0     0     0 73.59 0.754   3.8     0     0   393   350  0.62  0.76  74.5  99.9 15.00  0.00  0.00  0.00  0.00  0.00  0.00   2.0  0.33  0.67  0.00  0.48
 1982  56   142   132  -1.4 -20.0 21.42  6.38  0.01  0.00   0.0  0.01 0.001  0.01    68     9    55     4     2     2     0  0.00     0     0     0     0 73.59 0.754   3.8     0     0   393   350  0.62  0.76  73.7  99.9 15.00  0.00  0.00  0.00  0.00  0.00  0.00   2.0  1.00  1.00  0.00  0.47
 1982  57   143   133  -2.0 -20.0 21.42  6.38  0.01  0.00   0.0  0.01 0.001  0.01    68     9    55     4     2     2     0  0.00     0     0     0     0 73.59 0.754   3.8     0     0   393   350  0.62  0.76  72.9  99.9 15.00  0.00  0.00  0.00  0.00  0.00  0.00   2.0  1.00  1.00  0.00  0.47
 1982  58   144   134   1.7 -20.0 21.44  6.40  0.01  0.76   0.3  0.01 0.001  0.01    69     9    55     4     2     2     0  0.00     0     0     0     0 73.59 0.758   3.7     0     0   395   350  0.62  0.76  72.3  99.9 15.00  0.00  0.00  0.00  0.00  0.00  0.00   2.0  0.67  0.83  0.00  0.46
 1982  59   145   135   4.7 -20.0 21.48  6.45  0.01  2.18   0.8  0.01 0.001  0.01    70     9    56     5     2     2     0  0.00     0     0     0     0 73.59 0.771   3.1     0     0   401   349  0.62  0.76  71.9  99.9 15.00  0.00  0.00  0.00  0.00  0.00  0.00   2.0  0.06  0.53  0.00  0.46
 1982  60   146   136   8.4 -20.0 21.55  6.54  0.01  2.32   1.4  0.01 0.001  0.01    71     9    56     6     3     3     0  0.00     0     0     0     0 73.59 0.795   2.5     0     0   413   348  0.63  0.76  71.6  99.9 15.00  0.00  0.00  0.00  0.00  0.00  0.00   2.0  0.00  0.16  0.00  0.46
 1982  61   147   137   8.7 -20.0 21.62  6.63  0.01  2.32   0.5  0.01 0.001  0.01    71     9    56     6     3     3     0  0.00     0     0     0     0 73.59 0.819   2.2     0     0   424   347  0.64  0.76  71.5  99.9 15.00  0.00  0.00  0.00  0.00  0.00  0.00   2.0  0.00  0.13  0.00  0.45
 1982  62   148   138  -0.2 -20.0 21.62  6.63  0.01  0.00   0.0  0.01 0.001  0.01    71     9    56     6     3     3     0  0.00     0     0     0     0 73.59 0.819   2.2     0     0   424   347  0.64  0.77  71.4  99.9 15.00  0.00  0.00  0.00  0.00  0.00  0.00   2.0  1.00  1.00  0.00  0.45
 1982  63   149   139  -3.7 -20.0 21.62  6.63  0.01  0.00   0.0  0.01 0.001  0.01    71     9    56     6     3     3     0  0.00     0     0     0     0 73.59 0.819   2.2     0     0   424   347  0.64  0.77  71.3  99.9 15.00  0.00  0.00  0.00  0.00  0.00  0.00   2.0  1.00  1.00  0.00  0.44
 1982  64   150   140  -4.2 -20.0 21.62  6.63  0.01  0.00   0.0  0.01 0.001  0.01    71     9    56     6     3     3     0  0.00     0     0     0     0 73.59 0.819   2.2     0     0   424   347  0.64  0.77  71.0  99.9 15.00  0.00  0.00  0.00  0.00  0.00  0.00   2.0  1.00  1.00  0.00  0.44
 1982  65   151   141  -3.0 -20.0 21.62  6.63  0.01  0.00   0.0  0.01 0.001  0.01    71     9    56     6     3     3     0  0.00     0     0     0     0 73.59 0.819   2.2     0     0   424   347  0.64  0.77  70.5  99.9 15.00  0.00  0.00  0.00  0.00  0.00  0.00   2.0  1.00  1.00  0.00  0.43
 1982  66   152   142  -3.0 -20.0 21.62  6.63  0.01  0.00   0.0  0.01 0.001  0.01    71     9    56     6     3     3     0  0.00     0     0     0     0 73.59 0.819   2.2     0     0   424   347  0.64  0.77  69.9  99.9 15.00  0.00  0.00  0.00  0.00  0.00  0.00   2.0  1.00  1.00  0.00  0.43
 1982  67   153   143   2.5 -20.0 21.64  6.65  0.01  1.16   1.0  0.01 0.002  0.01    72     9    56     7     4     3     0  0.00     0     0     0     0 73.59 0.826   5.3     0     0   428   347  0.64  0.77  69.6  99.9 15.00  0.00  0.00  0.00  0.00  0.00  0.00   2.0  0.50  0.75  0.00  0.43
 1982  68   154   144   1.4 -20.0 21.65  6.67  0.01  0.65   0.5  0.01 0.002  0.02    73     9    56     7     4     3     0  0.00     0     0     1     0 73.59 0.830   7.7     0     0   430   347  0.64  0.77  69.1  99.9 15.00  0.00  0.00  0.00  0.00  0.00  0.00   2.0  0.72  0.86  0.00  0.42
 1982  69   155   145  11.1 -20.0 21.75  6.78  0.01  2.32   2.2  0.02 0.002  0.02    74     9    56     9     5     4     0  0.00     0     0     1     0 73.59 0.861   5.9     0     0   445   346  0.65  0.77  69.2  99.9 15.00  0.00  0.00  0.00  0.00  0.00  0.00   2.0  0.00  0.00  0.00  0.42
 1982  70   156   146  10.0 -20.0 21.83  6.89  0.02  2.32   2.3  0.02 0.002  0.02    77     9    57    11     6     4     0  0.00     0     0     1     0 73.59 0.889   4.7     0     0   459   345  0.66  0.77  69.2  99.9 15.00  0.00  0.00  0.00  0.00  0.00  0.00   2.0  0.00  0.00  0.00  0.41
 1982  71   157   147  12.8 -20.0 21.94  7.02  0.02  2.32   1.6  0.02 0.003  0.03    78     9    57    12     7     5     0  0.00     0     0     0     0 73.59 0.925   3.9     0     0   476   345  0.67  0.77  69.4  99.9 15.00  0.00  0.00  0.00  0.00  0.00  0.00   2.0  0.00  0.00  0.00  0.41
 1982  72   158   148   8.0 -20.0 22.01  7.11  0.03  2.32   4.0  0.03 0.003  0.03    82     9    57    15     9     6     0  0.00     0     0     0     0 73.59 0.948   3.1     0     0   487   342  0.67  0.77  69.4  99.9 15.00  0.00  0.00  0.00  0.00  0.00  0.00   2.0  0.00  0.20  0.00  0.40
 1982  73   159   149   7.8 -20.0 22.07  7.19  0.03  2.32   0.4  0.03 0.003  0.04    82     9    57    15     9     6     0  0.00     0     0     0     0 73.59 0.970   2.8     0     0   498   342  0.68  0.77  70.0  99.9 15.00  0.00  0.00  0.00  0.00  0.00  0.00   2.0  0.00  0.22  0.00  0.40
 1982  74   160   150  10.0 -20.0 22.16  7.30  0.03  2.32   1.7  0.04 0.004  0.04    84     9    58    17    10     6     0  0.00     0     0     0     0 73.59     1   2.5     0     0   511   341  0.69  0.77  91.3  99.9 15.00  0.00  0.00  0.00  0.00  0.00  0.00   2.0  0.00  0.00  0.00  0.39
 1982  75   161   151  13.0 -20.0 22.27  7.43  0.04  2.32   6.6  0.05 0.005  0.05    89     9    58    22    14     8     0  0.00     0     0     0     0 73.59 1.037   2.1     0     0   529   339  0.70  0.77  96.0  99.9 15.00  0.00  0.00  0.00  0.00  0.00  0.00   2.0  0.00  0.00  0.00  0.39
 1982  76   162   152  13.9 -20.0 22.38  7.58  0.05  2.32   7.9  0.06 0.006  0.07    97     9    59    28    18    10     0  0.00     0     0     1     0 73.59 1.077   1.9     0     0   548   337  0.71  0.77  87.8  99.9 14.35  0.00  0.00  0.00  0.00  0.00  0.00   2.0  0.00  0.00  0.00  0.39
 1982  77   163   153   9.8 -20.0 22.51  7.68  0.05  2.32   1.2  0.06 0.007  0.07    98     9    60    29    18    11     0  0.00     0     0     0     0 73.59 1.106   1.7     0     0   568   338  0.72  0.77  86.1  99.9 15.00  0.00  0.00  0.00  0.00  0.00  0.00   2.0  0.00  0.02  0.00  0.38
 1982  78   164   154  16.1 -20.0 22.71  7.85  0.06  2.32   9.8  0.08 0.008  0.09   107     9    61    36    23    13     0  0.00     0     0     1     0 73.59 1.154   1.7     0     0   601   338  0.73  0.77  96.9  99.9 11.43  0.00  0.00  0.00  0.00  0.00  0.00   2.0  0.00  0.00  0.00  0.38
 1982  79   165   155   8.3 -20.0 22.81  7.94  0.08  2.32  15.8  0.10 0.011  0.11   121     9    63    49    30    19     0  0.00     0     0     3     0 73.59 1.179   6.1     0     0   618   334  0.74  0.77  89.4  99.9  8.68  0.00  0.00  0.00  0.00  0.00  0.00   2.0  0.00  0.17  0.00  0.37
 1982  80   166   156   2.5 -20.0 22.85  7.97  0.08  1.16   9.4  0.10 0.011  0.11   129     9    64    56    30    26     0  0.00     0     0     9     0 73.59 1.187  16.7     0     0   623   334  0.74  0.77  85.5  99.9  9.00  0.00  0.00  0.00  0.00  0.00  0.00   2.0  0.50  0.75  0.00  0.37
 1982  81   167   157   3.9 -20.0 22.90  8.01  0.09  1.81  16.3  0.11 0.011  0.12   144     9    66    69    32    37     0  0.00     0     0    20     0 73.59 1.200  28.8     0     0   631   334  0.74  0.77  84.0  99.9  7.10  0.00  0.00  0.00  0.00  0.00  0.00   2.0  0.22  0.61  0.00  0.36
 1982  82   168   158   7.8 -20.0 22.99  8.09  0.10  2.32  11.4  0.13 0.014  0.14   155     9    68    77    38    39     0  0.00     0     0    19     0 73.59 1.226  23.9     0     0   647   332  0.75  0.78  83.2  99.9 11.88  0.00  0.00  0.00  0.00  0.00  0.00   2.0  0.00  0.22  0.00  0.36
 1982  83   169   159   6.6 -20.0 23.08  8.16  0.11  2.32  20.4  0.14 0.015  0.16   173     9    71    93    43    50     0  0.00     0     0    27     0 73.59 1.248  28.7     0     0   661   331  0.75  0.78  82.4  99.9  6.91  0.00  0.00  0.00  0.00  0.00  0.00   1.9  0.00  0.34  0.00  0.36
 1982  84   170   160   3.9 -20.0 23.13  8.20  0.12  1.78  22.0  0.15 0.016  0.17   193     9    74   110    45    65     0  0.00     0     0    41     0 73.59 1.262  37.0     0     0   669   330  0.76  0.78  84.3  99.9  5.62  0.00  0.00  0.00  0.00  0.00  0.00   2.0  0.23  0.62  0.00  0.35
 1982  85   171   161   3.0 -20.0 23.17  8.23  0.12  1.41  18.2  0.15 0.017  0.17   210     9    76   124    47    78     0  0.00     0     0    53     0 73.59 1.273  42.7     0     0   675   330  0.76  0.78  83.1  99.9  6.39  0.00  0.00  0.00  0.00  0.00  0.00   2.0  0.39  0.69  0.00  0.35
 1982  86   172   162   5.6 -20.0 23.24  8.29  0.13  2.32  24.9  0.17 0.018  0.18   232     9    79   144    51    93     0  0.00     0     0    66     0 73.59 1.294  46.0     0     0   686   329  0.77  0.78  82.1  99.9  7.54  0.00  0.00  0.00  0.00  0.00  0.00   1.1  0.00  0.44  0.00  0.34
 1982  87   173   163   6.9 -20.0 23.32  8.36  0.15  2.32  19.3  0.19 0.020  0.21   250     9    82   159    57   102     0  0.00     0     0    71     0 73.59 1.322  44.9     0     0   700   328  0.77  0.78  81.4  99.9  9.33  0.00  0.00  0.00  0.00  0.00  0.00   0.8  0.00  0.31  0.00  0.34
 1982  88   174   164  10.3 -20.0 23.45  8.47  0.17  2.25  13.6  0.22 0.024  0.25   262     9    84   169    69   101     0  0.00     0     0    64     0 73.59 1.364  38.1     0     0   721   327  0.78  0.78  81.0  99.9 11.52  0.00  0.00  0.00  0.03  0.03  0.03   0.4  0.00  0.00  0.00  0.34
 1982  89   175   165  15.0 -20.0 23.61  8.63  0.21  2.01  33.6  0.28 0.030  0.31   293     9    88   195    86   109     0  0.00     0     0    64     0 73.59 1.427  33.0     0     0   747   326  0.79  0.77  81.4  99.9  3.71  0.00  0.00  0.00  0.13  0.13  0.13   0.3  0.00  0.00  0.00  0.33
 1982  90   176   166  10.9 -20.0 23.71  8.74  0.23  1.68  41.2  0.31 0.034  0.35   330     9    94   226    96   130     0  0.00     0     0    79     0 73.59 1.475  35.0     0     0   763   325  0.80  0.75  80.5  99.9  3.11  0.00  0.00  0.00  0.28  0.28  0.28   0.4  0.00  0.00  0.00  0.33
 1982  91   177   167  13.9 -20.0 23.83  8.89  0.26  1.58  39.9  0.35 0.039  0.39   366     9   100   256   109   147     0  0.00     0     0    90     0 73.59 1.541  35.0     0     0   783   324  0.81  0.75  79.6  90.0  2.79  0.00  0.00  0.00  0.32  0.32  0.32   0.3  0.00  0.00  0.00  0.32
 1982  92   178   168  17.0 -20.0 23.97  9.07  0.29  1.46  32.6  0.40 0.044  0.44   395     9   105   280   123   157     0  0.00     0     0    92     0 73.59 1.626  32.8     0     0   805   323  0.83  0.75  79.1  96.3  3.13  0.00  0.00  0.00  0.37  0.37  0.37   0.3  0.00  0.00  0.00  0.32
 1982  93   179   169   7.5 -20.0 24.02  9.15  0.29  1.36  45.1  0.41 0.045  0.45   435     9   112   313   127   186     0  0.00     0     0   119     0 74.01 1.665  37.9     0     0   814   322  0.83  0.74  77.9  80.2  2.75  0.00  0.00  0.00  0.41  0.41  0.41   0.6  0.00  0.25  0.00  0.32
 1982  94   180   170   5.2 -20.0 24.06  9.20  0.30  1.38  36.1  0.42 0.046  0.46   467     9   118   340   129   210     0  0.00     0     0   142     0 74.29 1.695  41.7     0     0   820   322  0.84  0.74  76.9  99.9  3.98  0.00  0.00  0.00  0.40  0.40  0.40   0.9  0.00  0.48  0.00  0.31
 1982  95   181   171   3.6 -20.0 24.09  9.24  0.30  1.03  13.7  0.42 0.046  0.47   479     9   120   350   131   219     0  0.00     0     0   150     0 74.30 1.716  42.9     0     0   825   321  0.84  0.75  82.3  99.9  8.71  0.00  0.00  0.00  0.38  0.38  0.38   1.3  0.28  0.64  0.00  0.31
 1982  96   182   172  -0.8 -20.0 24.09  9.24  0.30  0.00   0.0  0.42 0.046  0.47   479     9   120   350   131   219     0  0.00     0     0   150     0 74.30 1.716  42.9     0     0   825   321  0.84  0.75  80.8  99.9  6.12  0.00  0.00  0.00  0.36  0.36  0.36   2.0  1.00  1.00  0.00  0.30
 1982  97   183   173   3.0 -20.0 24.12  9.27  0.30  0.93   6.6  0.42 0.047  0.47   485     9   121   355   132   223     0  0.00     0     0   154     0 74.30 1.734  43.2     0     0   829   321  0.84  0.75  80.2  99.9 15.00  0.00  0.00  0.00  0.34  0.34  0.34   1.7  0.39  0.69  0.00  0.30
 1982  98   184   174   4.4 -20.0 24.15  9.32  0.31  1.39  23.5  0.43 0.048  0.48   506     9   124   373   134   239     0  0.00     0     0   168     0 74.30 1.761  45.1     0     0   835   321  0.85  0.75  79.4  99.9  7.82  0.00  0.00  0.00  0.32  0.32  0.32   1.1  0.12  0.56  0.00  0.30
 1982  99   185   175   4.1 -20.0 24.19  9.36  0.31  1.35  50.7  0.44 0.048  0.48   552     9   132   411   136   275     0  0.00     0     0   203     0 74.30 1.786  49.4     0     0   841   321  0.85  0.76  77.9  76.1  3.57  0.00  0.00  0.00  0.30  0.30  0.30   1.0  0.17  0.59  0.00  0.29
 1982 100   186   176   8.7 -20.0 24.27  9.45  0.33  1.67  61.6  0.46 0.051  0.51   608     9   141   458   145   313     0  0.00     0     0   236     0 74.30 1.843  51.6     0     0   854   320  0.86  0.76  76.5  68.6  3.47  0.00  0.00  0.00  0.28  0.28  0.28   0.4  0.00  0.13  0.00  0.29
 1982 101   187   177  13.6 -20.0 24.39  9.60  0.35  1.63  59.7  0.51 0.057  0.57   661     9   149   503   160   343     0  0.00     0     0   257     0 74.30 1.939  51.2     0     0   873   319  0.87  0.76  75.3  59.7  3.14  0.00  0.00  0.00  0.30  0.30  0.30   0.3  0.00  0.00  0.00  0.28
 1982 102   188   178  20.2 -20.0 24.56  9.81  0.39  1.51  63.6  0.57 0.065  0.64   719     9   158   551   181   370     0  0.00     0     0   273     0 74.30 2.090  49.5     0     0   900   317  0.88  0.75  74.0  44.5  2.33  0.00  0.00  0.00  0.35  0.35  0.35   0.2  0.00  0.02  0.00  0.28
 1982 103   189   179  16.1 -20.0 24.68  9.98  0.41  1.36  62.8  0.62 0.070  0.69   775     9   168   598   196   402     0  0.00     0     0   295     0 74.30 2.217  49.4     0     0   920   316  0.90  0.75  72.6  43.8  2.42  0.00  0.00  0.00  0.41  0.41  0.41   0.2  0.00  0.00  0.00  0.28
 1982 104   190   180  21.1 -20.0 24.82 10.20  0.44  1.29  62.7  0.67 0.077  0.75   831     9   177   645   214   431     0  0.00     0     0   314     0 74.30 2.395  48.7     0     0   944   315  0.91  0.75  71.1  36.4  2.16  0.00  0.00  0.00  0.45  0.45  0.45   0.2  0.00  0.08  0.00  0.27
 1982 105   191   181  24.2 -20.0 24.98 10.46  0.45  1.21  44.7  0.71 0.082  0.80   870     9   184   677   228   449     0  0.00     0     0   325     0 75.47 2.609  48.0     0     0   969   313  0.93  0.75  70.1  45.1  2.86  0.00  0.00  0.00  0.48  0.48  0.48   0.2  0.00  0.28  0.00  0.27
 1982 106   192   182  18.4 -20.0 25.10 10.65  0.47  1.16  21.1  0.76 0.087  0.84   888     9   187   692   243   449     0  0.00     0     0   319     0 76.37 2.778  46.0     0     0   988   311  0.95  0.75  70.1  99.9  6.71  0.00  0.00  0.00  0.50  0.50  0.50   0.2  0.00  0.00  0.00  0.27
 1982 107   193   183  10.0 -20.0 25.16 10.76  0.48  1.13  69.5  0.78 0.090  0.87   950     9   197   743   252   492     0  0.00     0     0   356     0 76.85 2.871  47.9     0     0   998   310  0.96  0.75  68.6  36.0  2.45  0.00  0.00  0.00  0.51  0.51  0.51   0.3  0.00  0.00  0.00  0.26
 1982 108   194   184  12.2 -20.0 25.24 10.88  0.50  1.12  66.2  0.81 0.094  0.90  1008     9   207   792   262   530     0  0.00     0     0   389     0 77.45 2.991  49.1     0     0  1010   309  0.97  0.75  67.1  34.2  2.12  0.00  0.00  0.00  0.52  0.52  0.52   0.3  0.00  0.00  0.00  0.26
 1982 109   195   185  15.3 -20.0 25.33 11.04  0.51  1.10  64.8  0.85 0.099  0.95  1066     9   217   840   275   565     0  0.00     0     0   416     0 78.20 3.150  49.5     0     0  1025   308  0.98  0.75  67.3  33.0  1.94  0.00  0.00  0.00  0.52  0.52  0.52   0.2  0.00  0.00  0.00  0.25
 1982 110   196   186   6.7 -20.0 25.33 11.11  0.52  1.08  67.6  0.86 0.100  0.96  1126     9   227   890   279   611     0  0.00     0     0   460     0 78.64 3.222  51.7     0     0  1025   307  0.99  0.75  65.3  36.2  2.27  0.00  0.00  0.00  0.54  0.54  0.54   0.4  0.00  0.33  0.00  0.00
 1982 111   197   187   7.0 -20.0 25.33 11.19  0.52  1.10  63.8  0.87 0.101  0.97  1183     9   237   937   283   654     0  0.00     0     0   501     0 79.11 3.301  53.5     0     0  1025   307  0.99  0.75  63.4  37.3  2.41  0.00  0.00  0.00  0.53  0.53  0.53   0.4  0.00  0.30  0.00  0.00
 1982 112   198   188   8.6 -20.0 25.33 11.28  0.53  1.11  76.7  0.88 0.104  0.99  1251     9   248   994   289   705     0  0.00     0     0   548     0 79.68 3.403  55.1     0     0  1025   306  1.00  0.75  61.2  29.3  1.99  0.00  0.00  0.00  0.52  0.52  0.52   0.3  0.00  0.14  0.00  0.00
 1982 113   199   189  11.7 -20.0 25.33 11.40  0.54  1.12  67.0  0.91 0.108  1.02  1311     9   258  1044   299   745     0  0.00     0     0   581     0 80.47 3.548  55.7     0     0  1025   305  1.01  0.75  59.7  30.2  2.17  0.00  0.00  0.00  0.52  0.52  0.52   0.2  0.00  0.00  0.00  0.00
 1982 114   200   190  16.4 -20.0 25.33 11.57  0.55  1.11  59.1  0.95 0.113  1.06  1363     9   266  1087   313   774     0  0.00     0     0   601     0 81.58 3.759  55.3     0     0  1025   304  1.02  0.75  58.5  30.5  2.29  0.00  0.00  0.00  0.52  0.52  0.52   0.2  0.00  0.00  0.00  0.00
 1982 115   201   191  13.1 -20.0 25.33 11.71  0.57  1.09  36.7  0.98 0.118  1.10  1395     9   271  1114   324   790     0  0.00     0     0   609     0 82.46 3.933  54.7     0     0  1025   302  1.03  0.76  57.9  51.8  3.62  0.00  0.00  0.00  0.53  0.53  0.53   0.2  0.00  0.00  0.00  0.00
 1982 116   202   192  14.1 -20.0 30.52 11.86  0.58  1.08  78.8  1.01 0.123  1.13  1465     9   283  1173   337   836     0  0.00     0     0   647     0 83.41 4.125  55.1     0     0  1012   300  1.04  0.76  56.0  22.4  1.38  0.00  0.00  0.00  0.53  0.53  0.53   0.2  0.00  0.00  0.00  0.00
 1982 117   203   193  10.6 -20.0 31.01 11.97  0.58  1.07  23.4  1.03 0.126  1.16  1485     9   286  1190   346   844     0  0.00     0     0   649     0 84.13 4.275  54.5     0     0  1003   299  1.05  0.76  55.8  81.3  4.00  0.00  0.00  0.00  0.54  0.54  0.54   0.3  0.00  0.00  0.00  0.00
 1982 118   204   194   8.4 -20.0 31.41 12.06  0.59  1.08   4.7  1.05 0.128  1.18  1489     9   286  1193   352   841     0  0.00     0     0   644     0 84.70 4.394  54.0     0     0   996   297  1.06  0.76  58.6  99.9 15.00  0.00  0.00  0.00  0.54  0.54  0.54   0.3  0.00  0.16  0.00  0.00
 1982 119   205   195  10.0 -20.0 31.87 12.17  0.60  1.10  22.0  1.07 0.132  1.20  1508     9   289  1209   361   848     0  0.00     0     0   645     0 85.39 4.537  53.4     0     0   987   296  1.07  0.77  73.9  99.9  6.40  0.00  0.00  0.00  0.53  0.53  0.53   0.3  0.00  0.00  0.00  0.00
 1982 120   206   196  13.9 -20.0 32.52 12.31  0.61  1.11  34.7  1.10 0.137  1.24  1538     9   294  1235   374   861     0  0.00     0     0   649     0 86.34 4.738  52.6     0     0   975   294  1.08  0.77  72.8  67.2  5.95  0.00  0.00  0.00  0.52  0.52  0.52   0.6  0.00  0.00  0.00  0.00
 1982 121   207   197  16.1 -20.0 33.28 12.48  0.62  1.17  48.7  1.14 0.143  1.28  1581     9   300  1271   389   882     0  0.00     0     0   657     0 87.45 4.976  51.7     0     0   962   292  1.09  0.77  70.7  46.7  4.41  0.00  0.00  0.00  0.50  0.50  0.50   0.5  0.00  0.00  0.00  0.00
 1982 122   208   198  18.0 -20.0 34.12 12.67  0.63  1.20  64.9  1.18 0.151  1.33  1639     9   309  1321   406   915     0  0.00     0     0   674     0 88.70 5.247  51.0     0     0   947   290  1.11  0.78  67.8  33.2  3.38  0.00  0.00  0.00  0.48  0.48  0.48   0.3  0.00  0.00  0.00  0.00
 1982 123   209   199  22.0 -20.0 35.15 12.90  0.64  1.22  75.7  1.22 0.160  1.38  1706     9   318  1378   423   955     0  0.00     0     0   696     0 90.23 5.586  50.5     0     0   930   287  1.13  0.78  64.8  25.4  2.78  0.00  0.00  0.00  0.48  0.48  0.48   0.3  0.00  0.13  0.00  0.00
 1982 124   210   200  24.5 -20.0 36.29 13.16  0.65  1.22  90.2  1.25 0.168  1.42  1786     9   330  1447   439  1008     0  0.00     0     0   732     0 91.94 5.975  50.6     0     0   912   285  1.15  0.78  61.4  19.5  1.87  0.00  0.00  0.00  0.47  0.47  0.47   0.3  0.00  0.30  0.00  0.00
 1982 125   211   201  18.0 -20.0 37.14 13.35  0.67  1.24  21.5  1.29 0.174  1.46  1804     9   332  1463   458  1005     0  0.00     0     0   720     0 93.20 6.273  49.2     0     0   899   282  1.16  0.79  61.4  93.7  8.93  0.00  0.00  0.00  0.47  0.47  0.47   0.2  0.00  0.00  0.00  0.00
 1982 126   212   202  10.9 -20.0 37.65 13.46  0.67  1.24  58.7  1.32 0.180  1.50  1857     9   339  1509   469  1040     0  0.00     0     0   741     0 93.97 6.453  49.1     0     0   892   280  1.17  0.79  91.7  61.3  3.95  0.00  0.00  0.00  0.46  0.46  0.46   0.3  0.00  0.00  0.00  0.00
 1982 127   213   203  14.4 -20.0 38.32 13.62  0.68  1.25 111.3  1.35 0.188  1.54  1958     9   353  1596   484  1113     0  0.00     0     0   794     0 95.00 6.698  49.8     0     0   882   279  1.18  0.80  90.3  28.1  3.10  0.00  0.00  0.00  0.46  0.46  0.46   0.8  0.00  0.00  0.00  0.00
 1982 128   214   204  20.5 -20.0 39.28 13.83  0.69  1.33 122.5  1.40 0.201  1.60  2069     9   367  1693   505  1188     0  0.00     0     0   839     0 96.46 7.061  49.6     0     0   869   277  1.20  0.80  85.1  22.8  2.78  0.00  0.00  0.00  0.43  0.43  0.43   0.4  0.00  0.04  0.00  0.00
 1982 129   215   205  22.5 -20.0 40.38 14.07  0.71  1.35 114.8  1.44 0.213  1.66  2173     9   380  1784   525  1258     0  0.00     0     0   878     0 98.07 7.474  49.2     0     0   856   274  1.22  0.81  81.2  23.1  3.07  0.00  0.00  0.00  0.42  0.42  0.42   0.4  0.00  0.17  0.00  0.00
 1982 130   216   206  22.5 -20.0 41.56 14.07  0.70  1.39  88.2  1.42 0.224  1.64  2254     9   390  1855   521  1330     0  0.00     0     0   903     4 98.07 7.901  48.8     0     0   844   273  1.23  0.81  78.1  29.9  4.02  0.00  0.00  0.00  0.40  0.40  0.40   0.4  0.00  0.17  0.00  0.00
 1982 131   217   207  22.0 -20.0 42.72 14.07  0.70  1.46 113.9  1.40 0.238  1.64  2359     9   401  1949   517  1424     0  0.00     0     0   935     8 98.07 8.329  48.2     0     0   833   271  1.25  0.82  75.1  23.5  3.08  0.00  0.00  0.00  0.37  0.37  0.37   0.7  0.00  0.13  0.00  0.00
 1982 132   218   208  18.9 -20.0 43.71 14.07  0.69  1.55  54.8  1.38 0.245  1.63  2410     9   407  1994   513  1469     0  0.00     0     0   952    12 98.07 8.708  48.0     0     0   824   269  1.27  0.83 101.0  74.7  7.45  0.00  0.00  0.00  0.33  0.33  0.33   0.9  0.00  0.00  0.00  0.00
 1982 133   219   209  20.0 -20.0 44.77 14.07  0.69  1.63  60.8  1.36 0.252  1.62  2467     9   412  2045   509  1521     0  0.00     0     0   971    15 98.07 9.114  47.9     0     0   814   268  1.28  0.84  99.9  67.6  8.09  0.00  0.00  0.00  0.30  0.30  0.30   2.0  0.00  0.00  0.00  0.00
 1982 134   220   210  17.8 -20.0 45.70 14.07  0.68  1.72  68.4  1.35 0.261  1.61  2530     9   418  2103   506  1579     0  0.00     0     0   992    19 98.07 9.480  47.6     0     0   806   266  1.30  0.85  99.0  65.8  8.04  0.00  0.00  0.00  0.26  0.26  0.26   2.0  0.00  0.00  0.00  0.00
 1982 135   221   211  17.8 -20.0 46.63 14.07  0.68  1.80 163.3  1.33 0.284  1.62  2684     9   432  2243   502  1719     0  0.00     0     0  1037    22 98.07 9.851  46.7     0     0   798   265  1.31  0.86 106.1  30.7  3.55  0.00  0.00  0.00  0.22  0.22  0.22   1.5  0.00  0.00  0.00  0.00
 1982 136   222   212  19.5 -20.0 47.66 14.07  0.67  1.88  72.7  1.31 0.293  1.61  2752     9   437  2306   498  1782     0  0.00     0     0  1060    26 98.07 10.27  46.5     0     0   791   264  1.33  0.86 106.5  70.7  8.42  0.00  0.00  0.00  0.19  0.19  0.19   2.0  0.00  0.00  0.00  0.00
 1982 137   223   213  19.5 -20.0 48.68 14.07  0.67  1.97 109.4  1.30 0.308  1.61  2856     9   445  2401   494  1878     0  0.00     0     0  1092    29 98.07 10.70  46.0     0     0   783   263  1.35  0.87 108.6  50.0  5.91  0.00  0.00  0.00  0.15  0.15  0.15   2.0  0.00  0.00  0.00  0.00
 1982 138   224   214  20.3 -20.0 49.75 14.07  0.66  2.06 172.6  1.28 0.333  1.61  3020     9   457  2554   490  1962     0  0.00    69    69  1141    33 98.07 11.15  45.3     0     0   776   261  1.36  0.88 105.7  31.3  3.86  0.00  0.00  0.00  0.11  0.11  0.11   2.0  0.00  0.02  0.00  0.00
 1982 139   225   215  23.6 -20.0 53.77 14.07  0.66  2.15 167.5  1.26 0.357  1.62  3179     9   467  2703   484  1955     0  0.00   226   137  1191    37 98.07 11.69  44.7     0     0   769   260  1.38  0.89 101.2  30.5  4.03  0.00  0.00  0.00  0.07  0.07  0.07   2.0  0.00  0.24  0.00  0.00
 1982 140   226   216  21.1 -20.0 57.99 14.07  0.65  2.21 102.5  1.24 0.370  1.61  3278     9   472  2797   481  1928     0  0.00   347   180  1222    41 98.07 12.18  44.3     0     0   764   259  1.40  0.91  99.4  53.5  7.35  0.00  0.00  0.00  0.05  0.05  0.05   2.0  0.00  0.07  0.00  0.00
 1982 141   227   217  18.0 -20.0 63.99 14.07  0.65  2.26 153.9  1.23 0.393  1.62  3427     9   478  2940   478  1968     0  0.00   451   245  1268    43 98.07 12.61  43.8     0     0   759   257  1.41  0.93 119.9  46.6  5.37  0.00  0.00  0.00  0.03  0.03  0.03   2.0  0.00  0.00  0.00  0.00
 1982 142   228   218  16.1 -20.0 70.32 14.07  0.65  2.29 125.8  1.22 0.412  1.63  3550     9   481  3060   476  1971     0  0.00   567   300  1306    46 98.07 12.99  43.3     0     0   756   257  1.43  0.95 117.7  58.8  6.97  0.00  0.00  0.00  0.01  0.01  0.01   2.0  0.00  0.00  0.00  0.00
 1982 143   229   219  18.0 -20.0 71.71 14.07  0.64  2.32 172.9  1.21 0.438  1.65  3720     9   484  3227   473  2020     2  0.00   683   378  1357    49 98.07 13.43  42.7 10669 .0000   753   256  1.44  0.97 113.6  39.9  4.93  0.00  0.00  0.00  0.00  0.00  0.00   2.0  0.00  0.00  0.00  0.00
 1982 144   230   220  18.7 -20.0 73.14 14.07  0.64  2.32  68.5  1.20 0.436  1.63  3788     9   484  3294   469  1979    16  0.00   778   391  1413    52 98.07 13.88  43.8 10669 .0001   750   255  1.46  0.98 112.8  99.9 12.60  0.00  0.00  0.00  0.00  0.00  0.00   2.0  0.00  0.00  0.00  0.00
 1982 145   231   221  20.0 -20.0 74.68 14.07  0.63  2.32 101.3  1.18 0.433  1.62  3888     9   485  3393   466  2029    42  0.01   801   418  1489    55 98.07 14.36  45.2 10669 .0004   748   254  1.47  0.98 128.0  75.1  8.28  0.00  0.00  0.00  0.00  0.00  0.00   2.0  0.00  0.00  0.00  0.00
 1982 146   232   222  16.4 -20.0 75.94 14.07  0.63  2.32 185.9  1.17 0.431  1.60  4072     9   487  3575   463  2132    75  0.02   848   450  1642    57 98.07 14.76  47.7 10669 .0007   746   253  1.49  0.98 146.3  49.6  4.79  0.00  0.00  0.00  0.00  0.00  0.00   2.0  0.00  0.00  0.00  0.00
 1982 147   233   223  18.4 -20.0 77.35 14.07  0.63  2.32 205.4  1.16 0.429  1.59  4275     9   489  3777   460  2240   121  0.03   896   497  1800    60 98.07 15.21  50.1 10669 .0011   744   252  1.50  0.98 144.1  42.0  4.17  0.00  0.00  0.00  0.00  0.00  0.00   2.0  0.00  0.00  0.00  0.00
 1982 148   234   224  23.3 -20.0 79.15 14.07  0.62  2.32 112.6  1.14 0.426  1.57  4386     9   490  3887   455  2266   194  0.05   909   569  1841    64 98.07 15.78  50.7 10669 .0018   744   251  1.52  0.98 134.2  65.4  7.01  0.00  0.00  0.00  0.00  0.00  0.00   2.0  0.00  0.22  0.00  0.00
 1982 149   235   225  21.4 -20.0 80.20 14.07  0.62  2.32 165.1  1.13 0.423  1.55  4549     9   491  4049   451  2320   276  0.07   934   652  1923    67 98.07 16.30  51.9 10669 .0026   743   250  1.54  0.98 154.0  53.4  5.00  0.00  0.00  0.00  0.00  0.00  0.00   1.4  0.00  0.09  0.00  0.00
 1982 150   236   226  20.5 -20.0 80.61 14.07  0.62  2.32 126.0  1.13 0.421  1.55  4674     9   492  4172   451  2343   365  0.09   944   741  1959    68 98.07 16.81  52.4 10669 .0034   743   250  1.56  0.98 147.4  67.7  6.64  0.00  0.00  0.00  0.00  0.00  0.00   0.9  0.00  0.04  0.00  0.00
 1982 151   237   227  17.8 -20.0 80.96 14.07  0.61  2.32 102.1  1.12 0.419  1.54  4775     9   493  4272   451  2359   442  0.10   951   817  1984    69 98.07 17.24  52.7 10669 .0041   743   249  1.57  0.98 152.7  92.3  8.75  0.00  0.00  0.00  0.00  0.00  0.00   0.4  0.00  0.00  0.00  0.00
 1982 152   238   228  12.8 -20.0 81.22 14.07  0.61  2.28 199.0  1.12 0.417  1.54  4972     9   495  4467   451  2463   486  0.11   997   862  2135    70 98.07 17.56  54.6 10669 .0046   743   248  1.58  0.98 138.5  46.2  4.83  0.00  0.00  0.00  0.02  0.02  0.02   1.3  0.00  0.00  0.00  0.00
 1982 153   239   229  15.2 -20.0 81.52 14.07  0.61  2.32  76.8  1.10 0.416  1.51  5047     9   496  4543   444  2472   549  0.12  1003   924  2153    75 98.07 17.94  54.9 10669 .0051   743   248  1.59  0.98 136.6  99.9 12.46  0.00  0.00  0.00  0.00  0.00  0.00   0.3  0.00  0.00  0.00  0.00
 1982 154   240   230  15.0 -20.0 81.82 14.07  0.60  2.23  50.8  1.07 0.414  1.49  5098     9   496  4592   435  2465   609  0.13  1002   985  2148    81 98.07 18.31  55.0 10669 .0057   743   247  1.61  0.98 136.2  99.9 15.00  0.00  0.00  0.00  0.04  0.04  0.04   0.9  0.00  0.00  0.00  0.00
 1982 155   241   231  17.0 -20.0 82.15 14.07  0.59  2.28  97.4  1.05 0.412  1.46  5194     9   497  4688   426  2481   683  0.15  1011  1058  2176    87 98.07 18.73  55.5 10669 .0064   743   246  1.62  0.98 136.3  86.3  9.24  0.00  0.00  0.00  0.02  0.02  0.02   0.6  0.00  0.00  0.00  0.00
 1982 156   242   232  17.8 -20.0 82.50 14.07  0.58  2.25 141.7  1.02 0.410  1.43  5334     9   498  4827   417  2525   759  0.16  1033  1135  2245    94 98.07 19.17  56.5 10669 .0071   743   246  1.63  0.98 132.5  55.8  6.14  0.00  0.00  0.00  0.03  0.03  0.03   0.2  0.00  0.00  0.00  0.00
 1982 157   243   233  25.5 -20.0 83.01 14.07  0.57  1.97 107.0  1.00 0.408  1.40  5439     9   499  4932   406  2522   869  0.18  1033  1245  2247   101 98.07 19.80  56.7 10669 .0081   743   245  1.66  0.98 130.0  54.9  6.18  0.00  0.00  0.00  0.10  0.10  0.10   0.2  0.05  0.37  0.00  0.00
 1982 158   244   234  20.2 -20.0 83.41 14.07  0.56  1.75 127.6  0.96 0.405  1.36  5565     9   500  5057   391  2549   957  0.19  1049  1332  2294   111 98.07 20.31  57.5 10669 .0090   743   244  1.67  0.98 137.3  47.6  5.08  0.00  0.00  0.00  0.24  0.24  0.24   0.4  0.00  0.02  0.00  0.00
 1982 159   245   235  25.8 -20.0 83.92 14.07  0.54  1.46  83.5  0.92 0.403  1.33  5648     9   500  5138   379  2529  1068  0.21  1043  1444  2273   119 98.07 20.95  57.5 10669 .0100   743   243  1.69  0.98 133.6  53.1  5.84  0.00  0.00  0.00  0.31  0.31  0.31   0.4  0.08  0.39  0.00  0.00
 1982 160   246   236  22.8 -20.0 84.37 14.07  0.53  1.32  89.1  0.88 0.401  1.28  5735     9   500  5226   364  2523  1166  0.22  1043  1542  2272   129 98.07 21.52  57.8 10669 .0109   743   243  1.71  0.98 147.3  52.9  5.28  0.00  0.00  0.00  0.43  0.43  0.43   0.4  0.00  0.18  0.00  0.00
 1982 161   247   237  16.4 -20.0 84.69 14.07  0.51  1.09  84.0  0.85 0.399  1.25  5818     9   501  5308   350  2533  1237  0.23  1051  1612  2293   138 98.07 21.93  58.3 10669 .0116   743   242  1.73  0.98 140.9  49.7  5.19  0.00  0.00  0.00  0.53  0.53  0.53   0.2  0.00  0.00  0.00  0.00
 1982 162   248   238  18.0 -20.0 85.05 14.07  0.50  0.90  27.4  0.80 0.397  1.20  5845     9   501  5335   333  2499  1315  0.25  1039  1690  2252   149 98.07 22.38  58.2 10669 .0123   743   241  1.74  0.98 139.2  99.9 12.97  0.00  0.00  0.00  0.61  0.61  0.61   0.5  0.00  0.00  0.00  0.00
 1982 163   249   239  19.8 -20.0 85.44 14.07  0.48  0.74  41.8  0.76 0.396  1.15  5886     9   501  5376   316  2470  1400  0.26  1030  1776  2219   160 98.07 22.88  58.2 10669 .0131   743   240  1.76  0.98 136.0  62.0  6.53  0.00  0.00  0.00  0.68  0.68  0.68   0.2  0.00  0.00  0.00  0.00
 1982 164   250   240  20.9 -20.0 85.86 14.07  0.45  0.61  24.2  0.71 0.394  1.11  5910     9   501  5400   297  2426  1490  0.28  1015  1865  2165   171 98.07 23.40  57.9 10669 .0140   743   240  1.77  0.98 134.1  85.9  8.09  0.00  0.00  0.00  0.74  0.74  0.74   0.2  0.00  0.06  0.00  0.00
 1982 165   251   241  23.9 -20.0 86.33 14.07  0.43  0.51  15.8  0.67 0.392  1.06  5925     9   500  5415   278  2368  1593  0.29   993  1969  2089   183 98.07 24.00  57.4 10669 .0149   743   239  1.79  0.98 133.4  99.9  9.65  0.00  0.00  0.00  0.78  0.78  0.78   0.1  0.00  0.26  0.00  0.00
 1982 166   252   242  22.5 -20.0 86.77 14.07  0.41  0.42  19.7  0.61 0.390  1.00  5944     9   500  5434   258  2316  1690  0.31   974  2066  2024   196 98.07 24.56  57.0 10669 .0158   743   238  1.80  0.98 153.2  81.6  6.68  0.00  0.00  0.00  0.82  0.82  0.82   0.4  0.00  0.17  0.00  0.00
 1982 167   253   243  18.6 -20.0 87.14 14.07  0.38  0.35  21.2  0.57 0.388  0.95  5964     9   500  5455   239  2277  1770  0.32   961  2146  1976   208 98.07 25.03  56.8 10669 .0166   743   237  1.80  0.98 147.1  63.1  6.30  0.00  0.00  0.00  0.85  0.85  0.85   0.7  0.00  0.00  0.00  0.00
 1982 168   254   244  21.1 -20.0 87.56 14.07  0.36  0.29  12.1  0.53 0.386  0.91  5976     9   499  5467   222  2271  1794  0.33   962  2170  1974   218 98.07 25.55  57.1 10669 .0168   743   237  1.80  0.98 143.3  86.2  8.84  0.00  0.00  0.00  0.87  0.87  0.87   0.1  0.00  0.07  0.00  0.00
 1982 169   255   245  21.1 -20.0 87.98 14.07  0.34  0.24   7.7  0.48 0.385  0.87  5983     9   499  5475   204  2255  1828  0.33   959  2203  1959   229 98.07 26.08  57.3 10669 .0171   743   236  1.80  0.98 140.1  99.9 10.78  0.00  0.00  0.00  0.90  0.90  0.90   0.2  0.00  0.07  0.00  0.00
 1982 170   256   246  19.2 -20.0 88.36 14.07  0.31  0.20   9.1  0.44 0.383  0.82  5991     9   499  5484   186  2235  1868  0.34   954  2244  1938   239 98.07 26.56  57.4 10669 .0175   742   235  1.80  0.98 137.0  80.7  7.40  0.00  0.00  0.00  0.91  0.91  0.91   0.3  0.00  0.00  0.00  0.00
 1982 171   257   247  22.8 -19.7 88.81 14.07  0.29  0.17   7.1  0.40 0.379  0.78  5998     9   498  5491   170  2214  1893  0.34   957  2269  1930   257 98.07 27.13  57.8 10669 .0177   741   234  1.80  0.98 134.7  78.6  7.30  0.00  0.00  0.00  0.93  0.93  0.93   0.2  0.00  0.18  0.00  0.00
 1982 172   258   248  22.2 -16.9 89.25 14.07  0.26  0.13   4.0  0.36 0.376  0.73  6001     9   498  5494   152  2193  1916  0.35   959  2291  1923   275 98.07 27.68  58.2 10669 .0180   739   234  1.80  0.98 133.0  99.9  9.97  0.00  0.00  0.00  0.94  0.94  0.94   0.2  0.00  0.15  0.00  0.00
 1982 173   259   249  20.8 -14.4 89.66 14.07  0.23  0.09   3.1  0.31 0.373  0.69  6004     9   497  5498   134  2169  1942  0.35   960  2318  1910   292 98.07 28.20  58.5 10669 .0182   738   233  1.80  0.98 146.3  99.9  8.80  0.00  0.00  0.00  0.96  0.96  0.96   0.2  0.00  0.06  0.00  0.00
 1982 174   260   250  21.7 -12.1 90.23 14.07  0.21  0.04   0.8  0.27 0.369  0.64  6004     9   497  5498   118  2115  2010  0.37   947  2386  1852   308 98.07 28.74  58.2 10669 .0188   735   232  1.80  0.98 143.3  99.9 15.00  0.00  0.00  0.00  0.98  0.98  0.98   0.6  0.00  0.11  0.00  0.00

*DSSAT Cropping System Model Ver. 4.8.5.000 -release  SEP 11, 2025 22:39:39

*RUN   2        : DRYLAND  - 60 KG N/HA     CSCER048 KSAS8101    2
 MODEL          : CSCER048 - Wheat
 EXPERIMENT     : KSAS8101 WH N RESPONSE,KANSAS STATE  3FE(N)*2IR  (DSSAT3)
 DATA PATH      :
 TREATMENT  2   : DRYLAND  - 60 KG N/HA     CSCER048
  
@YEAR DOY   DAS   DAP TMEAN TKILL  GSTD  L#SD PARID PARUD  AWAD  LAID  SAID  CAID  TWAD SDWAD  RWAD  CWAD  LWAD  SWAD  HWAD  HIAD CHWAD  EWAD RSWAD SNWPD SNWLD SNWSD  RS%D  H#AD  HWUD  T#AD  SLAD  RDPD  PTFD  SWXD WAVRD WUPRD  WFTD  WFPD  WFGD  NFTD  NFPD  NFGD NUPRD  TFPD  TFGD VRNFD DYLFD
 1981 289    10     0  12.8  -9.7  0.00  0.00  0.00  0.00   0.0  0.00 0.000  0.00    46    46     0     0     0     0     0  0.00     0     0     0     0     0     0   0.0     0     0   162   -99  0.05  0.98   3.8  99.9  1.00  0.00  0.00  0.00  0.00  0.00  0.00   0.0  0.00  0.00  1.00  0.00
 1981 290    11     1  16.1  -7.4  5.58  0.00  0.00  0.00   0.0  0.00 0.000  0.00    46    46     0     0     0     0     0  0.00     0     0     0     0     0     0   0.0     0     0   162   -99  0.05  0.98   7.0  99.9  1.00  0.00  0.00  0.00  0.00  0.00  0.00   0.0  0.00  0.00  1.00  0.00
 1981 291    12     2   9.4  -7.2  6.54  0.00  0.00  0.00   0.0  0.00 0.000  0.00    46    45     1     0     0     0     0  0.00     0     0     0     0     0     0   0.0     0     0   162   -99  0.07  0.98   7.1  99.9  1.00  0.00  0.00  0.00  0.00  0.00  0.00   0.0  0.00  0.06  0.99  0.00
 1981 292    13     3  12.2  -6.0  7.81  0.00  0.00  0.00   0.0  0.00 0.000  0.00    46    44     2     0     0     0     0  0.00     0     0     0     0     0 .0004   0.0     0     0   162   -99  0.09  0.98   6.7  99.9  1.00  0.00  0.00  0.00  0.00  0.00  0.00   2.0  0.00  0.00  0.98  0.00
 1981 293    14     4  17.5  -6.0  9.69  0.00  0.00  0.00   0.0  0.00 0.000  0.00    46    43     3     0     0     0     0  0.00     0     0     0     0     0 .0019   0.0     0     0   162   -99  0.11  0.98   9.0  99.9  1.00  0.00  0.00  0.00  0.00  0.00  0.00   2.0  0.00  0.00  0.98  0.00
 1981 294    15     5  11.7  -6.0 10.00  0.00  0.00  0.00   0.0  0.00 0.000  0.00    46    42     4     0     0     0     0  0.00     0     0     0     0     0 .0036   0.0     0     0   162   -99  0.13  0.98  10.2  99.9  1.00  0.00  0.00  0.00  0.00  0.00  0.00   2.0  0.00  0.00  0.97  0.00
 1981 295    16     6   6.2  -7.1 10.13  0.13  0.00  0.00   0.0  0.00 0.000  0.00    46    41     4     1     1     0     0  0.00     0     0     0     0     0 .0048   0.0     0     0   162   400  0.14  0.75  10.3  99.9  1.00  0.00  0.00  0.00  0.00  0.00  0.00   1.6  0.00  0.38  0.95  0.49
 1981 296    17     7   1.9  -8.5 10.17  0.17  0.00  0.90   0.1  0.00 0.000  0.00    46    40     5     1     1     0     0  0.00     0     0     0     0     0 .0053   9.6     0     0   162   399  0.14  0.75  10.1  99.9 15.00  0.00  0.00  0.00  0.00  0.00  0.00   2.0  0.61  0.81  0.93  0.49
 1981 297    18     8   6.1  -9.5 10.30  0.30  0.00  2.32   0.1  0.01 0.000  0.01    46    39     5     2     1     1     0  0.00     0     0     0     0     0 .0066   9.7     0     0   162   399  0.15  0.75  10.6  99.9 15.00  0.00  0.00  0.00  0.00  0.00  0.00   1.5  0.00  0.39  0.91  0.50
 1981 298    19     9   8.4 -10.0 10.47  0.47  0.01  2.32   0.3  0.01 0.001  0.01    47    37     6     4     3     2     0  0.00     0     0     0     0     0 .0087  10.5     0     0   162   399  0.16  0.75  13.6  99.9 15.00  0.00  0.00  0.00  0.00  0.00  0.00   0.9  0.00  0.16  0.89  0.50
 1981 299    20    10   7.8 -10.5 10.64  0.64  0.01  2.32   1.3  0.01 0.001  0.02    48    35     6     7     4     3     0  0.00     0     0     1     0     0 .0109  20.9     0     0   162   399  0.17  0.75  13.8  99.9  6.99  0.00  0.00  0.00  0.00  0.00  0.00   1.2  0.00  0.22  0.87  0.51
 1981 300    21    11  13.7 -10.4 10.93  0.93  0.02  2.32   1.8  0.02 0.002  0.03    49    31     7    12     6     6     0  0.00     0     0     3     0     0 .0150  24.0     0     0   162   399  0.19  0.75  14.8  99.9  3.90  0.00  0.00  0.00  0.00  0.00  0.00   0.5  0.00  0.00  0.87  0.51
 1981 301    22    12  16.2 -10.2 11.27  1.27  0.03  2.32   2.8  0.04 0.003  0.04    52    26     8    18     9     9     0  0.00     0     0     5     0     0 .0205  26.6     0     0   162   399  0.21  0.75  16.3  99.9  2.76  0.00  0.00  0.00  0.00  0.00  0.00   0.4  0.00  0.00  0.87  0.52
 1981 302    23    13  17.5 -10.0 11.63  1.63  0.04  2.32   4.3  0.05 0.004  0.05    56    20     9    27    13    14     0  0.00     0     0     8     0     0 .0274  30.2     0     0   162   397  0.23  0.75  18.0  99.9  2.02  0.00  0.00  0.00  0.00  0.00  0.00   0.4  0.00  0.00  0.87  0.52
 1981 303    24    14  16.1  -9.9 11.97  1.97  0.05  2.32   1.4  0.06 0.005  0.07    57    15    10    32    16    16     0  0.00     0     0     9     0     0 .0347  26.7     0     0   162   395  0.25  0.75  19.7  99.9  7.66  0.00  0.00  0.00  0.00  0.00  0.00   0.4  0.00  0.00  0.87  0.52
 1981 304    25    15  13.9  -9.8 12.13  2.13  0.06  2.24   1.0  0.07 0.006  0.07    58    12    11    35    17    17     0  0.00     0     0     9     0     0 .0416  25.3     0     0   162   395  0.27  0.75  21.6  99.9 11.81  0.00  0.00  0.00  0.03  0.03  0.03   0.7  0.00  0.00  0.87  0.53
 1981 305    26    16  12.2  -9.7 12.26  2.26  0.06  2.17   1.8  0.07 0.006  0.08    59    11    12    37    19    18     0  0.00     0     0     9     0     0 .0483  24.3     0     0   162   394  0.29  0.75  51.2  99.9  7.64  0.00  0.00  0.00  0.06  0.06  0.06   0.7  0.00  0.00  0.86  0.53
 1981 306    27    17  10.2  -9.7 12.37  2.37  0.06  2.14   1.8  0.08 0.007  0.09    61    10    12    39    20    19     0  0.00     0     0     9     0     0 .0543  23.4     0     0   162   393  0.30  0.74  52.7  99.9 12.53  0.00  0.00  0.00  0.08  0.08  0.08   2.0  0.00  0.00  0.85  0.54
[...]
 1982 107   193   183  10.0 -20.0 26.20 10.76  0.63  2.32 184.0  1.17 0.137  1.31  1604     9   270  1324   381   943     0  0.00     0     0   734     0 78.96 3.228  55.4     0     0  1166   308  0.96  0.80  77.7  31.3  2.67  0.00  0.00  0.00  0.00  0.00  0.00   2.0  0.00  0.00  0.00  0.26
 1982 108   194   184  12.2 -20.0 26.35 10.88  0.65  2.32 177.9  1.24 0.146  1.39  1766     9   292  1465   405  1061     0  0.00     0     0   837     0 79.57 3.393  57.1     0     0  1191   307  0.97  0.80  75.5  29.2  2.80  0.00  0.00  0.00  0.00  0.00  0.00   2.0  0.00  0.00  0.00  0.26
 1982 109   195   185  15.3 -20.0 26.54 11.04  0.68  2.32 178.6  1.33 0.158  1.49  1930     9   313  1607   435  1172     0  0.00     0     0   930     0 80.32 3.616  57.9     0     0  1222   306  0.98  0.80  75.1  27.7  2.88  0.00  0.00  0.00  0.00  0.00  0.00   1.6  0.00  0.00  0.00  0.25
 1982 110   196   186   6.7 -20.0 26.54 11.11  0.68  2.32 192.6  1.36 0.161  1.52  2106     9   336  1761   444  1317     0  0.00     0     0  1070     0 81.03 3.720  60.7     0     0  1222   305  0.99  0.80 118.6  49.2  3.54  0.00  0.00  0.00  0.00  0.00  0.00   2.0  0.00  0.33  0.00  0.00
 1982 111   197   187   7.0 -20.0 26.54 11.19  0.69  2.32 178.5  1.38 0.165  1.55  2270     9   357  1903   454  1449     0  0.00     0     0  1197     0 81.77 3.837  62.9     0     0  1222   305  0.99  0.80 106.8  46.1  4.27  0.00  0.00  0.00  0.00  0.00  0.00   2.0  0.00  0.30  0.00  0.00
 1982 112   198   188   8.6 -20.0 26.54 11.28  0.70  2.32 211.6  1.42 0.170  1.59  2464     9   382  2072   469  1604     0  0.00     0     0  1342     0 82.68 3.991  64.7     0     0  1222   304  1.00  0.80 100.3  35.3  3.69  0.00  0.00  0.00  0.00  0.00  0.00   2.0  0.00  0.14  0.00  0.00
 1982 113   199   189  11.7 -20.0 26.54 11.40  0.72  2.32 184.7  1.49 0.180  1.67  2632     9   403  2220   492  1728     0  0.00     0     0  1450     0 83.93 4.214  65.3     0     0  1222   303  1.01  0.80  97.1  36.1  4.18  0.00  0.00  0.00  0.00  0.00  0.00   2.0  0.00  0.00  0.00  0.00
 1982 114   200   190  16.4 -20.0 26.54 11.57  0.74  2.32 164.8  1.58 0.193  1.77  2782     9   422  2351   525  1826     0  0.00     0     0  1525     0 85.68 4.545  64.9     0     0  1222   301  1.02  0.81  93.8  35.9  4.53  0.00  0.00  0.00  0.00  0.00  0.00   2.0  0.00  0.00  0.00  0.00
 1982 115   201   191  13.1 -20.0 26.54 11.71  0.75  2.32 104.5  1.65 0.203  1.86  2877     9   434  2434   552  1882     0  0.00     0     0  1563     0 87.08 4.820  64.2     0     0  1222   300  1.03  0.81  92.6  60.7  7.83  0.00  0.00  0.00  0.00  0.00  0.00   2.0  0.00  0.00  0.00  0.00
 1982 116   202   192  14.1 -20.0 30.52 11.86  0.77  2.32 224.9  1.73 0.215  1.95  3083     9   459  2615   581  2035     0  0.00     0     0  1693     0 88.60 5.127  64.7     0     0  1218   298  1.04  0.81  88.3  25.8  3.63  0.00  0.00  0.00  0.00  0.00  0.00   2.0  0.00  0.00  0.00  0.00
 1982 117   203   193  10.6 -20.0 31.01 11.97  0.78  2.32  67.9  1.79 0.224  2.02  3145     9   466  2669   603  2066     0  0.00     0     0  1709     0 89.74 5.370  64.0     0     0  1216   297  1.05  0.81 126.9  99.9 13.18  0.00  0.00  0.00  0.00  0.00  0.00   2.0  0.00  0.00  0.00  0.00
 1982 118   204   194   8.4 -20.0 31.41 12.06  0.79  2.32  13.6  1.83 0.229  2.06  3156     9   467  2680   618  2062     0  0.00     0     0  1699     0 90.64 5.565  63.4     0     0  1214   296  1.06  0.82 124.9  99.9 15.00  0.00  0.00  0.00  0.00  0.00  0.00   2.0  0.00  0.16  0.00  0.00
 1982 119   205   195  10.0 -20.0 31.87 12.17  0.80  2.32  62.2  1.89 0.238  2.12  3213     9   474  2729   639  2090     0  0.00     0     0  1711     0 91.72 5.799  62.7     0     0  1212   295  1.07  0.82 128.7  99.9 15.00  0.00  0.00  0.00  0.00  0.00  0.00   2.0  0.00  0.00  0.00  0.00
 1982 120   206   196  13.9 -20.0 32.52 12.31  0.81  2.32  97.2  1.96 0.251  2.21  3301     9   484  2808   669  2139     0  0.00     0     0  1734     0 93.23 6.128  61.8     0     0  1209   294  1.08  0.82 121.5  82.8  9.50  0.00  0.00  0.00  0.00  0.00  0.00   2.0  0.00  0.00  0.00  0.00
 1982 121   207   197  16.1 -20.0 33.28 12.48  0.83  2.32 128.9  2.05 0.267  2.32  3419     9   498  2912   703  2209     0  0.00     0     0  1771     0 94.98 6.519  60.8     0     0  1205   292  1.09  0.82 112.7  54.8  6.92  0.00  0.00  0.00  0.00  0.00  0.00   2.0  0.00  0.00  0.00  0.00
 1982 122   208   198  18.0 -20.0 34.12 12.67  0.84  2.32 166.5  2.15 0.285  2.44  3571     9   515  3047   742  2305     0  0.00     0     0  1830     0 96.95 6.968  60.1     0     0  1201   290  1.11  0.82 107.8  38.8  5.27  0.00  0.00  0.00  0.00  0.00  0.00   1.9  0.00  0.00  0.00  0.00
 1982 123   209   199  22.0 -20.0 35.15 12.90  0.85  2.32 191.7  2.26 0.305  2.56  3746     9   534  3203   783  2420     0  0.00     0     0  1902     0 99.35 7.533  59.4     0     0  1198   288  1.13  0.83 104.3  30.0  4.35  0.00  0.00  0.00  0.00  0.00  0.00   1.7  0.00  0.13  0.00  0.00
 1982 124   210   200  24.5 -20.0 36.29 13.16  0.86  2.32 226.5  2.35 0.324  2.68  3954     9   556  3389   821  2568     0  0.00     0     0  2010     0 102.0 8.186  59.3     0     0  1194   287  1.15  0.83 100.1  23.3  3.65  0.00  0.00  0.00  0.00  0.00  0.00   1.8  0.00  0.30  0.00  0.00
 1982 125   211   201  18.0 -20.0 37.14 13.35  0.88  2.32  53.1  2.45 0.339  2.79  4002     9   561  3432   863  2568     0  0.00     0     0  1987     0 104.0 8.688  57.9     0     0  1192   284  1.16  0.84  99.8  99.9 15.00  0.00  0.00  0.00  0.00  0.00  0.00   2.0  0.00  0.00  0.00  0.00
 1982 126   212   202  10.9 -20.0 37.65 13.46  0.88  2.32 144.2  2.52 0.353  2.87  4135     9   574  3551   889  2662     0  0.00     0     0  2050     0 105.2 8.992  57.7     0     0  1191   283  1.17  0.84 127.5  62.5  8.08  0.00  0.00  0.00  0.00  0.00  0.00   2.0  0.00  0.00  0.00  0.00
 1982 127   213   203  14.4 -20.0 38.32 13.62  0.89  2.32 271.0  2.60 0.372  2.97  4387     9   600  3778   922  2855     0  0.00     0     0  2198     0 106.8 9.407  58.2     0     0  1190   282  1.18  0.84 123.4  28.7  3.93  0.00  0.00  0.00  0.00  0.00  0.00   1.8  0.00  0.00  0.00  0.00
 1982 128   214   204  20.5 -20.0 39.28 13.83  0.90  2.32 279.6  2.71 0.398  3.11  4646     9   625  4011   968  3044     0  0.00     0     0  2321     0 109.1 10.02  57.9     0     0  1189   280  1.20  0.84 113.9  22.8  3.53  0.00  0.00  0.00  0.00  0.00  0.00   1.1  0.00  0.04  0.00  0.00
 1982 129   215   205  22.5 -20.0 40.38 14.07  0.91  2.32 254.6  2.82 0.425  3.24  4882     9   648  4225  1011  3213     0  0.00     0     0  2424     0 111.6 10.73  57.4     0     0  1189   279  1.22  0.85 109.4  23.3  3.91  0.00  0.00  0.00  0.00  0.00  0.00   1.1  0.00  0.17  0.00  0.00
 1982 130   216   206  22.5 -20.0 41.56 14.07  0.91  2.32 188.5  2.78 0.449  3.23  5058     9   664  4385  1003  3374     0  0.00     0     0  2480     8 111.6 11.46  56.7     0     0  1189   277  1.23  0.85 106.4  30.6  5.49  0.00  0.00  0.00  0.00  0.00  0.00   2.0  0.00  0.17  0.00  0.00
 1982 131   217   207  22.0 -20.0 42.72 14.07  0.90  2.32 233.2  2.75 0.481  3.23  5278     9   683  4585   995  3575     0  0.00     0     0  2548    16 111.6 12.18  55.8     0     0  1189   276  1.25  0.86 103.4  24.2  4.56  0.00  0.00  0.00  0.00  0.00  0.00   2.0  0.00  0.13  0.00  0.00
 1982 132   218   208  18.9 -20.0 43.71 14.07  0.90  2.32 106.8  2.72 0.494  3.22  5378     9   691  4677   988  3667     0  0.00     0     0  2582    22 111.6 12.83  55.5     0     0  1189   275  1.27  0.86 128.6  70.6 11.02  0.00  0.00  0.00  0.00  0.00  0.00   2.0  0.00  0.00  0.00  0.00
 1982 133   219   209  20.0 -20.0 44.77 14.07  0.90  2.32 112.8  2.69 0.507  3.20  5484     9   700  4775   981  3765     0  0.00     0     0  2618    29 111.6 13.52  55.2     0     0  1189   275  1.28  0.87 126.5  64.2 10.32  0.00  0.00  0.00  0.00  0.00  0.00   2.0  0.00  0.00  0.00  0.00
 1982 134   220   210  17.8 -20.0 45.70 14.07  0.90  2.32 120.8  2.67 0.523  3.19  5598     9   708  4881   974  3871     0  0.00     0     0  2656    36 111.6 14.14  54.8     0     0  1189   274  1.30  0.87 124.6  61.7 10.18  0.00  0.00  0.00  0.00  0.00  0.00   2.0  0.00  0.00  0.00  0.00
 1982 135   221   211  17.8 -20.0 46.63 14.07  0.89  2.32 276.4  2.64 0.563  3.20  5861     9   728  5124   967  4114     0  0.00     0     0  2736    42 111.6 14.77  53.8     0     0  1189   273  1.31  0.88 130.3  27.9  4.46  0.00  0.00  0.00  0.00  0.00  0.00   2.0  0.00  0.00  0.00  0.00
 1982 136   222   212  19.5 -20.0 47.66 14.07  0.89  2.32 118.1  2.61 0.578  3.19  5972     9   735  5228   960  4220     0  0.00     0     0  2774    49 111.6 15.48  53.6     0     0  1189   272  1.33  0.88 129.2  63.4 10.49  0.00  0.00  0.00  0.00  0.00  0.00   2.0  0.00  0.00  0.00  0.00
 1982 137   223   213  19.5 -20.0 48.68 14.07  0.89  2.32 170.5  2.58 0.601  3.18  6135     9   746  5380   952  4372     0  0.00     0     0  2826    56 111.6 16.19  53.1     0     0  1189   271  1.35  0.89 129.9  44.0  7.33  0.00  0.00  0.00  0.00  0.00  0.00   2.0  0.00  0.00  0.00  0.00
 1982 138   224   214  20.3 -20.0 49.75 14.07  0.89  2.32 258.6  2.55 0.638  3.19  6381     9   762  5611   944  4499     0  0.00   105   105  2902    63 111.6 16.95  52.3     0     0  1189   270  1.36  0.89 125.8  27.3  4.76  0.00  0.00  0.00  0.00  0.00  0.00   2.0  0.00  0.02  0.00  0.00
 1982 139   225   215  23.6 -20.0 53.77 14.07  0.88  2.32 241.3  2.52 0.672  3.19  6612     9   775  5827   934  4434     0  0.00   389   204  2976    71 111.6 17.85  51.7     0     0  1189   270  1.38  0.90 121.1  26.6  4.92  0.00  0.00  0.00  0.00  0.00  0.00   2.0  0.00  0.24  0.00  0.00
 1982 140   226   216  21.1 -20.0 57.99 14.07  0.88  2.32 144.2  2.49 0.690  3.18  6751     9   782  5960   928  4347     0  0.00   608   264  3022    78 111.6 18.67  51.4     0     0  1189   269  1.40  0.92 119.0  46.2  8.85  0.00  0.00  0.00  0.00  0.00  0.00   2.0  0.00  0.07  0.00  0.00
 1982 141   227   217  18.0 -20.0 63.99 14.07  0.88  2.32 213.1  2.47 0.720  3.19  6958     9   789  6159   922  4379     0  0.00   775   355  3087    83 111.6 19.37  50.8     0     0  1189   268  1.41  0.94 138.2  38.6  6.43  0.00  0.00  0.00  0.00  0.00  0.00   2.0  0.00  0.00  0.00  0.00
 1982 142   228   218  16.1 -20.0 70.32 14.07  0.88  2.32 171.9  2.45 0.744  3.19  7126     9   794  6323   917  4348     0  0.00   970   429  3141    88 111.6 20.01  50.4     0     0  1189   267  1.43  0.95 134.4  48.6  8.38  0.00  0.00  0.00  0.00  0.00  0.00   2.0  0.00  0.00  0.00  0.00
 1982 143   229   219  18.0 -20.0 71.71 14.07  0.87  2.32 234.3  2.43 0.779  3.20  7356     9   798  6549   911  4389     5  0.00  1151   537  3209    93 111.6 20.73  49.7 22072 .0000  1189   266  1.44  0.97 126.9  32.1  5.90  0.00  0.00  0.00  0.00  0.00  0.00   2.0  0.00  0.00  0.00  0.00
 1982 144   230   220  18.7 -20.0 73.14 14.07  0.87  2.32  93.1  2.40 0.774  3.18  7448     9   798  6641   905  4288    33  0.00  1316   565  3278    99 111.6 21.47  50.4 22072 .0001  1189   265  1.46  0.98 125.9  80.3 14.97  0.00  0.00  0.00  0.00  0.00  0.00   2.0  0.00  0.00  0.00  0.00
 1982 145   231   221  20.0 -20.0 74.68 14.07  0.87  2.32 138.2  2.38 0.769  3.15  7584     9   799  6776   898  4348    88  0.01  1338   620  3365   105 111.6 22.27  51.1 22072 .0004  1189   265  1.47  0.98 140.3  58.7  9.81  0.00  0.00  0.00  0.00  0.00  0.00   2.0  0.00  0.00  0.00  0.00
 1982 146   232   222  16.4 -20.0 75.94 14.07  0.87  2.32 254.4  2.36 0.765  3.12  7836     9   801  7025   893  4483   155  0.02  1385   687  3552   110 111.6 22.92  52.5 22072 .0007  1189   264  1.49  0.98 154.6  37.5  5.70  0.00  0.00  0.00  0.00  0.00  0.00   2.0  0.00  0.00  0.00  0.00
 1982 147   233   223  18.4 -20.0 77.35 14.07  0.86  2.32 281.8  2.33 0.760  3.09  8114     9   804  7301   887  4617   250  0.03  1432   783  3738   115 111.6 23.66  53.9 22072 .0011  1189   263  1.50  0.98 149.4  31.0  4.89  0.00  0.00  0.00  0.00  0.00  0.00   2.0  0.00  0.00  0.00  0.00
 1982 148   234   224  23.3 -20.0 79.15 14.07  0.86  2.32 154.9  2.30 0.755  3.06  8267     9   805  7453   878  4618   401  0.05  1434   933  3747   122 111.6 24.60  54.1 22072 .0018  1189   262  1.52  0.98 137.4  47.6  8.18  0.00  0.00  0.00  0.00  0.00  0.00   2.0  0.00  0.22  0.00  0.00
 1982 149   235   225  21.4 -20.0 80.20 14.07  0.86  2.32 228.0  2.28 0.750  3.03  8492     9   807  7677   871  4657   572  0.07  1448  1104  3805   129 111.6 25.46  54.5 22072 .0026  1189   261  1.54  0.98 155.9  38.2  5.79  0.00  0.00  0.00  0.00  0.00  0.00   2.0  0.00  0.09  0.00  0.00
 1982 150   236   226  20.5 -20.0 80.61 14.07  0.85  2.32 174.6  2.27 0.745  3.01  8665     9   808  7848   870  4646   755  0.10  1445  1288  3795   131 111.6 26.29  54.5 22072 .0034  1189   261  1.56  0.98 148.7  48.2  7.70  0.00  0.00  0.00  0.00  0.00  0.00   2.0  0.00  0.04  0.00  0.00
 1982 151   237   227  17.8 -20.0 80.96 14.07  0.85  2.32 141.6  2.26 0.741  3.00  8805     9   809  7987   870  4631   914  0.11  1439  1446  3777   133 111.6 27.00  54.4 22072 .0041  1189   260  1.57  0.98 153.7  65.5 10.11  0.00  0.00  0.00  0.00  0.00  0.00   2.0  0.00  0.00  0.00  0.00
 1982 152   238   228  12.8 -20.0 81.22 14.07  0.85  2.32 281.0  2.25 0.738  2.99  9083     9   812  8262   870  4766  1005  0.12  1486  1538  3963   134 111.6 27.52  55.6 22072 .0046  1189   259  1.58  0.98 139.1  32.8  5.60  0.00  0.00  0.00  0.00  0.00  0.00   2.0  0.00  0.00  0.00  0.00
 1982 153   239   229  15.2 -20.0 81.52 14.07  0.85  2.32 106.8  2.21 0.735  2.95  9188     9   812  8366   856  4749  1135  0.14  1482  1667  3947   144 111.6 28.14  55.7 22072 .0051  1189   259  1.59  0.98 137.5  82.6 14.33  0.00  0.00  0.00  0.00  0.00  0.00   1.6  0.00  0.00  0.00  0.00
 1982 154   240   230  15.0 -20.0 81.82 14.07  0.84  2.32  73.7  2.16 0.732  2.90  9261     9   813  8439   839  4711  1261  0.15  1472  1793  3905   155 111.6 28.75  55.6 22072 .0057  1189   258  1.61  0.98 137.6  99.9 15.00  0.00  0.00  0.00  0.00  0.00  0.00   0.8  0.00  0.00  0.00  0.00
 1982 155   241   231  17.0 -20.0 82.15 14.07  0.83  2.32 139.4  2.12 0.728  2.84  9398     9   814  8575   822  4702  1412  0.16  1472  1944  3902   167 111.6 29.44  55.8 22072 .0064  1189   257  1.62  0.98 137.7  60.8 10.54  0.00  0.00  0.00  0.00  0.00  0.00   0.6  0.00  0.00  0.00  0.00
 1982 156   242   232  17.8 -20.0 82.50 14.07  0.83  2.32 206.0  2.06 0.725  2.79  9602     9   815  8777   803  4737  1570  0.18  1487  2103  3958   180 111.6 30.16  56.3 22072 .0071  1189   257  1.63  0.98 134.1  39.1  6.98  0.00  0.00  0.00  0.00  0.00  0.00   0.5  0.00  0.00  0.00  0.00
 1982 157   243   233  25.5 -20.0 83.01 14.07  0.82  2.14 165.1  2.01 0.719  2.73  9765     9   816  8939   784  4690  1799  0.20  1474  2331  3906   193 111.6 31.20  56.2 22072 .0081  1189   256  1.66  0.98 130.8  37.8  6.94  0.00  0.00  0.00  0.03  0.03  0.03   0.2  0.05  0.37  0.00  0.00
 1982 158   244   234  20.2 -20.0 83.41 14.07  0.81  1.95 203.3  1.92 0.715  2.64  9965     9   818  9138   755  4707  1979  0.22  1485  2512  3943   213 111.6 32.03  56.8 22072 .0090  1189   255  1.67  0.98 138.2  32.6  5.65  0.00  0.00  0.00  0.16  0.16  0.16   0.1  0.00  0.02  0.00  0.00
 1982 159   245   235  25.8 -20.0 83.92 14.07  0.79  1.51 124.6  1.86 0.710  2.57 10088     9   818  9260   732  4629  2210  0.24  1462  2742  3850   228 111.6 33.08  56.4 22072 .0100  1189   254  1.69  0.98 134.4  36.2  6.48  0.00  0.00  0.00  0.29  0.29  0.29   0.1  0.08  0.39  0.00  0.00
 1982 160   246   236  22.8 -20.0 84.37 14.07  0.78  1.36 134.1  1.78 0.706  2.48 10220     9   819  9392   702  4579  2413  0.26  1450  2945  3798   248 111.6 34.01  56.4 22072 .0109  1189   253  1.71  0.98 148.2  35.6  5.78  0.00  0.00  0.00  0.41  0.41  0.41   0.4  0.00  0.18  0.00  0.00
 1982 161   247   237  16.4 -20.0 84.69 14.07  0.77  1.13 127.8  1.70 0.703  2.41 10346     9   820  9517   676  4567  2559  0.27  1451  3091  3795   265 111.6 34.68  56.7 22072 .0116  1189   252  1.73  0.98 141.6  33.2  5.66  0.00  0.00  0.00  0.51  0.51  0.51   0.2  0.00  0.00  0.00  0.00
 1982 162   248   238  18.0 -20.0 85.05 14.07  0.75  0.92  42.1  1.62 0.700  2.32 10387     9   820  9558   643  4483  2720  0.28  1427  3252  3696   285 111.6 35.42  56.4 22072 .0123  1189   252  1.74  0.98 139.9  80.8 13.93  0.00  0.00  0.00  0.60  0.60  0.60   0.1  0.00  0.00  0.00  0.00
 1982 163   249   239  19.8 -20.0 85.44 14.07  0.73  0.76  65.1  1.53 0.696  2.23 10451     9   820  9622   609  4404  2896  0.30  1406  3428  3605   307 111.6 36.23  56.2 22072 .0131  1189   251  1.76  0.98 136.1  40.2  7.11  0.00  0.00  0.00  0.67  0.67  0.67   0.1  0.00  0.00  0.00  0.00
 1982 164   250   240  20.9 -20.0 85.86 14.07  0.70  0.63  38.2  1.44 0.693  2.13 10488     9   819  9659   573  4299  3082  0.32  1376  3615  3478   329 111.6 37.09  55.7 22072 .0140  1189   250  1.77  0.98 133.3  54.5  9.85  0.00  0.00  0.00  0.73  0.73  0.73   0.4  0.00  0.06  0.00  0.00
 1982 165   251   241  23.9 -20.0 86.33 14.07  0.68  0.52  25.3  1.34 0.689  2.03 10512     9   819  9684   537  4235  3201  0.33  1360  3733  3407   352 111.6 38.07  55.6 22072 .0145  1189   250  1.79  0.98 131.6  63.6 11.11  0.00  0.00  0.00  0.78  0.78  0.78   0.1  0.00  0.26  0.00  0.00
 1982 166   252   242  22.5 -20.0 86.77 14.07  0.65  0.43  31.9  1.24 0.685  1.92 10543     9   818  9716   497  4232  3244  0.33  1366  3776  3420   376 111.6 38.99  56.1 22072 .0147  1189   249  1.80  0.98 149.7  49.5  7.29  0.00  0.00  0.00  0.81  0.81  0.81   0.1  0.00  0.17  0.00  0.00
 1982 167   253   243  18.6 -20.0 87.14 14.07  0.62  0.36  34.9  1.14 0.682  1.82 10577     9   818  9750   460  4202  3327  0.34  1362  3859  3394   399 111.6 39.75  56.3 22072 .0151  1189   248  1.80  0.98 143.7  38.5  6.44  0.00  0.00  0.00  0.84  0.84  0.84   0.3  0.00  0.00  0.00  0.00
 1982 168   254   244  21.1 -20.0 87.56 14.07  0.59  0.30  20.2  1.06 0.678  1.74 10596     9   817  9770   428  4170  3397  0.35  1356  3929  3364   419 111.6 40.61  56.5 22072 .0154  1189   247  1.80  0.98 139.3  51.0  8.79  0.00  0.00  0.00  0.87  0.87  0.87   0.2  0.00  0.07  0.00  0.00
 1982 169   255   245  21.1 -20.0 87.98 14.07  0.56  0.25  13.0  0.97 0.675  1.65 10608     9   816  9782   394  4166  3422  0.35  1361  3954  3372   440 111.6 41.47  57.0 22072 .0155  1189   246  1.80  0.98 136.1  65.7 11.60  0.00  0.00  0.00  0.89  0.89  0.89   0.1  0.00  0.07  0.00  0.00
 1982 170   256   246  19.2 -20.0 88.36 14.07  0.53  0.21  15.6  0.88 0.672  1.56 10623     9   816  9798   360  4165  3446  0.35  1366  3978  3384   461 111.6 42.26  57.4 22072 .0156  1189   246  1.80  0.98 131.2  45.5  8.32  0.00  0.00  0.00  0.91  0.91  0.91   0.1  0.00  0.00  0.00  0.00
 1982 171   257   247  22.8 -19.7 88.81 14.07  0.50  0.17  12.5  0.80 0.666  1.47 10634     9   815  9810   328  4109  3517  0.36  1363  4049  3344   492 111.6 43.18  57.7 22072 .0159  1189   245  1.80  0.98 127.1  43.2  7.28  0.00  0.00  0.00  0.93  0.93  0.93   0.2  0.00  0.18  0.00  0.00
 1982 172   258   248  22.2 -16.9 89.25 14.07  0.46  0.13   7.1  0.72 0.659  1.38 10640     9   814  9817   293  4083  3545  0.36  1371  4077  3344   525 111.6 44.09  58.2 22072 .0161  1189   244  1.80  0.98 124.6  57.2  9.80  0.00  0.00  0.00  0.94  0.94  0.94   0.1  0.00  0.15  0.00  0.00
 1982 173   259   249  20.8 -14.4 89.66 14.07  0.42  0.09   5.6  0.63 0.653  1.28 10645     9   813  9822   259  4052  3578  0.36  1376  4110  3337   557 111.6 44.94  58.7 22072 .0162  1189   243  1.80  0.98 136.8  54.8  8.53  0.00  0.00  0.00  0.96  0.96  0.96   0.1  0.00  0.06  0.00  0.00
 1982 174   260   250  21.7 -12.1 90.23 14.07  0.37  0.04   1.4  0.55 0.647  1.20 10646     9   813  9824   227  4005  3627  0.37  1376  4159  3308   588 111.6 45.82  59.0 22072 .0164  1189   243  1.80  0.98 133.9  95.5 15.00  0.00  0.00  0.00  0.98  0.98  0.98   0.2  0.00  0.11  0.00  0.00
