$GROWTH FACTOR OUTPUT FILE

*DSSAT Cropping System Model Ver. 4.8.5.000 -release  SEP 11, 2025 22:39:39

*RUN   1        : DRYLAND  - 0 KG N/HA      CSCER048 KSAS8101    1
 MODEL          : CSCER048 - Wheat
 EXPERIMENT     : KSAS8101 WH N RESPONSE,KANSAS STATE  3FE(N)*2IR  (DSSAT3)
 DATA PATH      :
 TREATMENT  1   : DRYLAND  - 0 KG N/HA      CSCER048
  
!........DATES.......  TEMP STAGE  ...PHENOLOGY....  .......PHOTOSYNTHESIS.......  .....GROWTH.....  ..TILLERS. WATER STRESS DETERMINANTS N STRESS DETERMINANTS       
@YEAR DOY   DAS   DAP TMEAN  GSTD    DU VRNFD DYLFD TFGEM  WFGE  TFPD  WFPD  NFPD CO2FD RSFPD  TFGD  WFGD  NFGD  WFTD  NFTD WAVRD WUPRD  SWXD  EOPD  SNXD LN%RD SN%RD RN%RD      
 1981 289    10     0  12.8   0.0  12.8  1.00  0.00  0.53  0.00  0.00  0.00  0.00 -0.01  0.00  0.00  0.00  0.00  0.00  0.00 99.90  1.00   3.8   0.0 178.6  0.00  0.00  0.00
 1981 290    11     1  16.1   5.6   0.0  1.00  0.00  0.40  0.00  0.00  0.00  0.00 -0.01  0.00  0.00  0.00  0.00  0.00  0.00 99.90  1.00   7.0   0.0 179.0  0.00  0.00  0.00
 1981 291    12     2   9.4   6.5   0.0  0.99  0.00  0.66  0.00  0.00  0.00  0.00 -0.01  0.00  0.06  0.00  0.00  0.00  0.00 99.90  1.00   7.1   0.0 179.5  0.00  0.00  1.00
 1981 292    13     3  12.2   7.8   0.2  0.98  0.00  0.55  0.00  0.00  0.00  0.00 -0.01  0.00  0.00  0.00  0.00  0.00  0.00 99.90  1.00   6.7   0.0 180.0  0.00  0.00  1.00
 1981 293    14     4  17.5   9.7   0.4  0.98  0.00  0.34  0.00  0.00  0.00  0.00 -0.01  0.00  0.00  0.00  0.00  0.00  0.00 99.90  1.00   9.0   0.0 180.3  0.00  0.00  1.00
 1981 294    15     5  11.7  10.0   0.3  0.97  0.00  0.57  0.00  0.00  0.00  0.00 -0.01  0.00  0.00  0.00  0.00  0.00  0.00 99.90  1.00  10.2   0.0 180.7  0.00  0.00  1.00
 1981 295    16     6   6.2  10.1   0.1  0.95  0.49  0.79  0.00  0.00  0.00  0.00 -0.01  0.00  0.38  0.00  0.00  0.00  0.00 99.90  1.00  10.3   0.0 181.0  1.00  0.00  1.00
 1981 296    17     7   1.9  10.2   0.0  0.93  0.49  0.96  0.00  0.61  0.00  0.00 -0.01  0.00  0.81  0.00  0.00  0.00  0.00 99.90 15.00  10.1   0.0 181.3  1.00  0.00  1.00
 1981 297    18     8   6.1  10.3   0.2  0.91  0.50  0.80  0.00  0.00  0.00  0.00 -0.01  0.00  0.39  0.00  0.00  0.00  0.00 99.90 15.00  10.6   0.0 181.5  1.00  0.88  1.00
 1981 298    19     9   8.4  10.5   0.4  0.89  0.50  0.71  0.00  0.00  0.00  0.00 -0.01  0.00  0.16  0.00  0.00  0.00  0.00 99.90 15.00  13.6   0.0 181.7  1.00  0.69  1.00
 1981 299    20    10   7.8  10.6   0.4  0.87  0.51  0.73  0.00  0.00  0.00  0.00 -0.01  0.00  0.22  0.00  0.00  0.00  0.00 99.90  7.99  13.8   0.0 181.8  1.00  0.72  1.00
 1981 300    21    11  13.7  10.9   0.9  0.87  0.51  0.49  0.00  0.00  0.00  0.00 -0.01  0.00  0.00  0.00  0.00  0.00  0.00 99.90  4.90  14.8   0.0 181.8  1.00  0.53  1.00
 1981 301    22    12  16.2  11.3   1.0  0.87  0.52  0.39  0.00  0.00  0.00  0.00 -0.01  0.00  0.00  0.00  0.00  0.00  0.00 99.90  3.53  16.3   0.0 181.9  1.00  0.43  1.00
 1981 302    23    13  17.5  11.6   1.1  0.87  0.52  0.34  0.00  0.00  0.00  0.00 -0.01  0.00  0.00  0.00  0.00  0.00  0.00 99.90  2.58  18.0   0.1 182.1  1.00  0.37  1.00
 1981 303    24    14  16.1  12.0   1.0  0.87  0.52  0.40  0.00  0.00  0.00  0.00 -0.01  0.00  0.00  0.00  0.00  0.00  0.00 99.90  9.73  19.7   0.0 182.3  0.92  0.37  0.99
 1981 304    25    15  13.9  12.1   0.9  0.87  0.53  0.48  0.00  0.00  0.00  0.09 -0.01  0.00  0.00  0.00  0.09  0.00  0.09 99.90 14.92  21.6   0.0 182.6  0.90  0.41  0.97
 1981 305    26    16  12.2  12.3   0.8  0.86  0.53  0.55  0.00  0.00  0.00  0.11 -0.01  0.00  0.00  0.00  0.11  0.00  0.11 99.90  9.61  51.2   0.0 182.9  0.87  0.42  0.96
 1981 306    27    17  10.2  12.4   0.7  0.85  0.54  0.63  0.00  0.00  0.00  0.15 -0.01  0.00  0.00  0.00  0.15  0.00  0.15 99.90 12.64  52.7   0.0 183.4  0.88  0.48  0.96
 1981 307    28    18  11.4  12.5   0.8  0.84  0.54  0.58  0.00  0.00  0.00  0.13 -0.01  0.00  0.00  0.00  0.13  0.00  0.13 99.90  5.54  51.5   0.1 183.8  0.90  0.55  0.97
 1981 308    29    19  10.2  12.6   0.8  0.83  0.54  0.63  0.00  0.00  0.00  0.12 -0.01  0.00  0.00  0.00  0.12  0.00  0.12 99.90 10.04  56.6   0.0 184.2  0.91  0.60  0.97
 1981 309    30    20  10.6  12.7   0.8  0.81  0.55  0.62  0.00  0.00  0.00  0.11 -0.01  0.00  0.00  0.00  0.11  0.00  0.11 99.90  2.83  54.8   0.1 184.5  0.91  0.65  0.97
 1981 310    31    21   6.7  12.8   0.6  0.79  0.55  0.77  0.00  0.00  0.00  0.10 -0.01  0.00  0.33  0.00  0.10  0.00  0.10 99.90  3.10  50.6   0.1 177.8  0.92  0.67  0.98
 1981 311    32    22   9.7  12.9   0.9  0.78  0.56  0.65  0.00  0.00  0.00  0.09 -0.01  0.00  0.03  0.00  0.09  0.00  0.09 99.90  4.35  49.6   0.1 174.0  0.93  0.71  0.98
 1981 312    33    23  10.9  13.0   1.1  0.77  0.56  0.61  0.00  0.00  0.00  0.08 -0.01  0.00  0.00  0.00  0.08  0.00  0.08 99.90 15.00  61.1   0.0 173.0  0.94  0.73  0.98
 1981 313    34    24   2.5  13.0   0.3  0.75  0.56  0.94  0.00  0.50  0.00  0.07 -0.01  0.00  0.75  0.00  0.07  0.00  0.07 99.90  3.82  59.6   0.1 170.0  0.94  0.75  0.98
 1981 314    35    25   5.6  13.1   0.6  0.73  0.57  0.82  0.00  0.00  0.00  0.07 -0.01  0.00  0.44  0.00  0.07  0.00  0.07 99.90  3.83  54.5   0.1 154.8  0.94  0.77  0.99
 1981 315    36    26   7.5  13.2   0.9  0.71  0.57  0.74  0.00  0.00  0.00  0.06 -0.01  0.00  0.25  0.00  0.06  0.00  0.06 99.90  4.13  52.3   0.1 150.0  0.95  0.79  0.99
 1981 316    37    27  10.9  13.3   1.3  0.70  0.57  0.61  0.00  0.00  0.00  0.06 -0.01  0.00  0.00  0.00  0.06  0.00  0.06 99.90  4.11  51.1   0.2 150.1  0.95  0.82  0.99
 1981 317    38    28  10.6  13.4   1.3  0.69  0.58  0.62  0.00  0.00  0.00  0.05 -0.01  0.00  0.00  0.00  0.05  0.00  0.05 99.90  4.35  50.2   0.2 150.1  0.96  0.84  0.99
 1981 318    39    29  13.0  13.5   1.7  0.68  0.58  0.52  0.00  0.00  0.00  0.05 -0.01  0.00  0.00  0.00  0.05  0.00  0.05 99.90  5.10  50.1   0.1 150.0  0.96  0.87  0.99
 1981 319    40    30  15.0  13.7   2.0  0.68  0.58  0.44  0.00  0.00  0.00  0.04 -0.01  0.00  0.00  0.00  0.04  0.00  0.04 99.90  4.46  50.4   0.1 150.1  0.97  0.89  0.99
 1981 320    41    31  17.5  13.9   2.3  0.68  0.59  0.34  0.00  0.00  0.00  0.04 -0.01  0.00  0.00  0.00  0.04  0.00  0.04 99.90  3.31  51.0   0.2 150.2  0.97  0.91  0.99
 1981 321    42    32  12.8  14.0   1.7  0.68  0.59  0.53  0.00  0.00  0.00  0.03 -0.01  0.00  0.00  0.00  0.03  0.00  0.03 99.90  3.74  51.3   0.2 150.3  0.98  0.92  1.00
 1981 322    43    33  14.1  14.1   1.9  0.67  0.59  0.47  0.00  0.00  0.00  0.03 -0.01  0.00  0.00  0.00  0.03  0.00  0.03 99.90  5.81  51.8   0.1 150.5  0.98  0.94  1.00
 1981 323    44    34   4.1  14.2   0.5  0.65  0.60  0.87  0.00  0.17  0.00  0.02 -0.01  0.00  0.59  0.00  0.02  0.00  0.02 99.90 15.00  51.8   0.0 150.7  0.98  0.94  1.00
 1981 324    45    35   0.0  14.2   0.0  0.63  0.60  1.00  0.00  1.00  0.00  0.02 -0.01  0.00  1.00  0.00  0.02  0.00  0.02 99.90  8.74  51.1   0.1 151.0  0.98  0.94  1.00
 1981 325    46    36   2.5  14.2   0.4  0.61  0.60  0.94  0.00  0.50  0.00  0.02 -0.01  0.00  0.75  0.00  0.02  0.00  0.02 99.90  5.23  50.5   0.2 151.3  0.98  0.95  1.00
 1981 326    47    37   7.0  14.3   1.1  0.59  0.61  0.76  0.00  0.00  0.00  0.02 -0.01  0.00  0.30  0.00  0.02  0.00  0.02 99.90  6.80  50.5   0.1 151.4  0.98  0.95  1.00
 1981 327    48    38  10.6  14.4   1.7  0.58  0.61  0.62  0.00  0.00  0.00  0.02 -0.01  0.00  0.00  0.00  0.02  0.00  0.02 99.90  5.10  51.0   0.2 151.4  0.99  0.96  1.00
 1981 328    49    39   6.4  14.5   1.0  0.56  0.61  0.78  0.00  0.00  0.00  0.02 -0.01  0.00  0.36  0.00  0.02  0.00  0.02 99.90  6.61  51.0   0.1 151.3  0.99  0.96  1.00
 1981 329    50    40  12.2  14.6   2.1  0.55  0.61  0.55  0.00  0.00  0.00  0.01 -0.01  0.00  0.00  0.00  0.01  0.00  0.01 99.90  5.58  51.6   0.2 151.3  0.99  0.97  1.00
 1981 330    51    41   6.7  14.7   1.1  0.53  0.62  0.77  0.00  0.00  0.00  0.01 -0.01  0.00  0.33  0.00  0.01  0.00  0.01 99.90  9.20  51.8   0.1 151.3  0.99  0.98  1.00
 1981 331    52    42  -0.8  14.7   0.0  0.51  0.62  1.00  0.00  1.00  0.00  0.01 -0.01  0.00  1.00  0.00  0.01  0.00  0.01 99.90 12.76  51.4   0.1 151.4  0.99  0.98  1.00
 1981 332    53    43   2.5  14.7   0.5  0.49  0.62  0.94  0.00  0.50  0.00  0.01 -0.01  0.00  0.75  0.00  0.01  0.00  0.01 99.90 12.27  51.2   0.1 151.6  0.99  0.98  1.00
 1981 333    54    44   3.0  14.7   0.6  0.47  0.62  0.92  0.00  0.39  0.00  0.01 -0.01  0.00  0.70  0.00  0.01  0.00  0.01 99.90 14.15  51.1   0.1 151.7  0.99  0.98  1.00
 1981 334    55    45   5.9  14.8   1.2  0.45  0.63  0.81  0.00  0.00  0.00  0.01 -0.01  0.00  0.41  0.00  0.01  0.00  0.01 99.90 15.00  70.1   0.0 151.7  0.99  0.98  1.00
 1981 335    56    46   2.2  14.8   0.4  0.43  0.63  0.95  0.00  0.56  0.00  0.01 -0.01  0.00  0.78  0.00  0.01  0.00  0.01 99.90 15.00  79.2   0.0 150.2  0.99  0.98  1.00
 1981 336    57    47   3.6  14.8   0.8  0.41  0.63  0.90  0.00  0.28  0.00  0.01 -0.01  0.00  0.64  0.00  0.01  0.00  0.01 99.90  9.20  73.0   0.1 141.9  0.99  0.99  1.00
 1981 337    58    48   4.5  14.9   1.0  0.39  0.63  0.86  0.00  0.11  0.00  0.01 -0.01  0.00  0.55  0.00  0.01  0.00  0.01 99.90  7.57  70.0   0.2 139.2  1.00  0.99  1.00
 1981 338    59    49   3.9  14.9   0.9  0.37  0.64  0.88  0.00  0.22  0.00  0.00 -0.01  0.00  0.61  0.00  0.00  0.00  0.00 99.90  8.04  68.7   0.2 139.2  1.00  0.99  1.00
 1981 339    60    50   3.9  15.0   0.9  0.35  0.64  0.88  0.00  0.22  0.00  0.00 -0.01  0.00  0.61  0.00  0.00  0.00  0.00 99.90 15.00  68.5   0.1 139.2  1.00  0.99  1.00
 1981 340    61    51   8.9  15.1   2.1  0.33  0.64  0.68  0.00  0.00  0.00  0.00 -0.01  0.00  0.11  0.00  0.00  0.00  0.00 99.90 10.46  68.5   0.1 139.2  1.00  1.00  1.00
 1981 341    62    52  11.7  15.2   2.8  0.32  0.64  0.57  0.00  0.00  0.00  0.00 -0.01  0.00  0.00  0.00  0.00  0.00  0.00 99.90  7.59  67.8   0.2 139.1  1.00  1.00  1.00
 1981 342    63    53   3.7  15.2   0.9  0.30  0.64  0.89  0.00  0.27  0.00  0.00 -0.01  0.00  0.63  0.00  0.00  0.00  0.00 99.90 10.78  66.8   0.1 139.0  1.00  1.00  1.00
 1981 343    64    54   2.2  15.3   0.6  0.28  0.64  0.95  0.00  0.55  0.00  0.00 -0.01  0.00  0.77  0.00  0.00  0.00  0.00 99.90 10.80  65.7   0.1 139.1  1.00  1.00  1.00
 1981 344    65    55  -0.3  15.3   0.0  0.26  0.65  1.00  0.00  1.00  0.00  0.00 -0.01  0.00  1.00  0.00  0.00  0.00  0.00 99.90 15.00  65.6   0.0 139.2  1.00  1.00  1.00
 1981 345    66    56   2.5  15.3   0.7  0.24  0.65  0.94  0.00  0.50  0.00  0.00 -0.01  0.00  0.75  0.00  0.00  0.00  0.00 99.90 15.00  65.6   0.0 139.2  1.00  1.00  1.00
 1981 346    67    57   2.8  15.3   0.7  0.22  0.65  0.93  0.00  0.44  0.00  0.00 -0.01  0.00  0.72  0.00  0.00  0.00  0.00 99.90 15.00  65.7   0.0 139.2  1.00  1.00  1.00
 1981 347    68    58   2.5  15.3   0.7  0.20  0.65  0.94  0.00  0.50  0.00  0.00 -0.01  0.00  0.75  0.00  0.00  0.00  0.00 99.90 15.00  65.8   0.0 139.2  1.00  1.00  1.00
 1981 348    69    59   0.5  15.3   0.2  0.18  0.65  1.00  0.00  0.89  0.00  0.00 -0.01  0.00  0.94  0.00  0.00  0.00  0.00 99.90 15.00  65.7   0.1 139.3  1.00  1.00  1.00
 1981 349    70    60   0.0  15.3   0.0  0.16  0.65  1.00  0.00  1.00  0.00  0.00 -0.01  0.00  1.00  0.00  0.00  0.00  0.00 99.90 15.00  65.4   0.0 139.3  1.00  1.00  1.00
 1981 350    71    61  -4.7  15.3   0.0  0.16  0.65  1.00  0.00  1.00  0.00  0.00 -0.01  0.00  1.00  0.00  0.00  0.00  0.00 99.90 15.00  65.4   0.0 139.3  1.00  1.00  1.00
 1981 351    72    62 -12.5  15.3   0.0  0.14  0.65  1.00  0.00  1.00  0.00  0.00 -0.01  0.00  1.00  0.00  0.00  0.00  0.00 99.90 15.00  65.4   0.0 139.3  1.00  1.00  1.00
 1981 352    73    63 -13.6  15.3   0.0  0.12  0.65  1.00  0.00  1.00  0.00  0.00 -0.01  0.00  1.00  0.00  0.00  0.00  0.00 99.90 15.00  65.3   0.0 139.3  1.00  1.00  1.00
 1981 353    74    64 -11.4  15.3   0.0  0.10  0.65  1.00  0.00  1.00  0.00  0.00 -0.01  0.00  1.00  0.00  0.00  0.00  0.00 99.90 15.00  65.2   0.0 139.3  1.00  1.00  1.00
 1981 354    75    65  -4.2  15.3   0.0  0.08  0.65  1.00  0.00  1.00  0.00  0.00 -0.01  0.00  1.00  0.00  0.00  0.00  0.00 99.90 15.00  67.8   0.0 139.3  1.00  1.00  1.00
 1981 355    76    66   2.0  15.4   0.6  0.06  0.65  0.96  0.00  0.61  0.00  0.00 -0.01  0.00  0.81  0.00  0.00  0.00  0.00 99.90 15.00  70.0   0.0 139.3  1.00  1.00  1.00
 1981 356    77    67   1.7  15.4   0.6  0.04  0.65  0.97  0.00  0.66  0.00  0.00 -0.01  0.00  0.83  0.00  0.00  0.00  0.00 99.90 15.00  70.0   0.0 139.3  1.00  1.00  1.00
 1981 357    78    68  -1.1  15.4   0.0  0.02  0.65  1.00  0.00  1.00  0.00  0.00 -0.01  0.00  1.00  0.00  0.00  0.00  0.00 99.90 15.00  68.7   0.0 139.3  1.00  1.00  1.00
 1981 358    79    69  -0.3  15.4   0.0  0.00  0.65  1.00  0.00  1.00  0.00  0.00 -0.01  0.00  1.00  0.00  0.00  0.00  0.00 99.90 15.00  67.3   0.0 139.3  1.00  1.00  1.00
 1981 359    80    70   1.6  15.4   0.6  0.00  0.65  0.97  0.00  0.67  0.00  0.00 -0.01  0.00  0.84  0.00  0.00  0.00  0.00 99.90 15.00  66.5   0.0 139.3  1.00  1.00  1.00
 1981 360    81    71  -1.7  15.4   0.0  0.00  0.65  1.00  0.00  1.00  0.00  0.00 -0.01  0.00  1.00  0.00  0.00  0.00  0.00 99.90 15.00  65.9   0.0 139.3  1.00  1.00  1.00
 1981 361    82    72  -3.1  15.4   0.0  0.00  0.65  1.00  0.00  1.00  0.00  0.00 -0.01  0.00  1.00  0.00  0.00  0.00  0.00 99.90 15.00  65.8   0.0 139.3  1.00  1.00  1.00
 1981 362    83    73  -4.4  15.4   0.0  0.00  0.65  1.00  0.00  1.00  0.00  0.00 -0.01  0.00  1.00  0.00  0.00  0.00  0.00 99.90 15.00  65.5   0.0 139.3  1.00  1.00  1.00
 1981 363    84    74  -3.6  15.4   0.0  0.00  0.65  1.00  0.00  1.00  0.00  0.00 -0.01  0.00  1.00  0.00  0.00  0.00  0.00 99.90 15.00  64.9   0.0 139.3  1.00  1.00  1.00
 1981 364    85    75   1.7  15.4   0.6  0.00  0.65  0.97  0.00  0.66  0.00  0.00 -0.01  0.00  0.83  0.00  0.00  0.00  0.00 99.90 15.00  64.2   0.0 139.3  1.00  1.00  1.00
 1981 365    86    76   0.0  15.4   0.0  0.00  0.65  1.00  0.00  1.00  0.00  0.00 -0.01  0.00  1.00  0.00  0.00  0.00  0.00 99.90 15.00  63.4   0.0 139.3  1.00  1.00  1.00
 1982   1    87    77  -6.1  15.4   0.0  0.00  0.65  1.00  0.00  1.00  0.00  0.00 -0.01  0.00  1.00  0.00  0.00  0.00  0.00 99.90 15.00  63.3   0.0 139.2  1.00  1.00  1.00
 1982   2    88    78   0.8  15.4   0.3  0.00  0.65  1.00  0.00  0.83  0.00  0.00 -0.01  0.00  0.92  0.00  0.00  0.00  0.00 99.90 15.00  65.3   0.0 139.2  1.00  1.00  1.00
 1982   3    89    79  -6.3  15.4   0.0  0.00  0.65  1.00  0.00  1.00  0.00  0.00 -0.01  0.00  1.00  0.00  0.00  0.00  0.00 99.90 15.00  65.3   0.0 139.2  1.00  1.00  1.00
 1982   4    90    80  -6.1  15.4   0.0  0.00  0.64  1.00  0.00  1.00  0.00  0.00 -0.01  0.00  1.00  0.00  0.00  0.00  0.00 99.90 15.00  70.2   0.0 139.2  1.00  1.00  1.00
 1982   5    91    81  -1.6  15.4   0.0  0.00  0.64  1.00  0.00  1.00  0.00  0.00 -0.01  0.00  1.00  0.00  0.00  0.00  0.00 99.90 15.00  68.9   0.0 139.2  1.00  1.00  1.00
 1982   6    92    82 -10.9  15.4   0.0  0.00  0.64  1.00  0.00  1.00  0.00  0.00 -0.01  0.00  1.00  0.00  0.00  0.00  0.00 99.90 15.00  68.9   0.0 139.2  1.00  1.00  1.00
 1982   7    93    83 -11.4  15.4   0.0  0.00  0.64  1.00  0.00  1.00  0.00  0.00 -0.01  0.00  1.00  0.00  0.00  0.00  0.00 99.90 15.00  68.8   0.0 139.2  1.00  1.00  1.00
 1982   8    94    84  -2.8  15.4   0.0  0.00  0.64  1.00  0.00  1.00  0.00  0.00 -0.01  0.00  1.00  0.00  0.00  0.00  0.00 99.90 15.00  67.7   0.0 139.2  1.00  1.00  1.00
 1982   9    95    85  -8.4  15.4   0.0  0.00  0.64  1.00  0.00  1.00  0.00  0.00 -0.01  0.00  1.00  0.00  0.00  0.00  0.00 99.90 15.00  67.6   0.0 139.2  1.00  1.00  1.00
 1982  10    96    86 -18.6  15.4   0.0  0.00  0.63  1.00  0.00  1.00  0.00  0.00 -0.01  0.00  1.00  0.00  0.00  0.00  0.00 99.90 15.00  67.6   0.0 139.2  1.00  1.00  1.00
 1982  11    97    87 -13.4  15.4   0.0  0.00  0.63  1.00  0.00  1.00  0.00  0.00 -0.01  0.00  1.00  0.00  0.00  0.00  0.00 99.90 15.00  67.5   0.0 139.2  1.00  1.00  1.00
 1982  12    98    88  -9.1  15.4   0.0  0.00  0.63  1.00  0.00  1.00  0.00  0.00 -0.01  0.00  1.00  0.00  0.00  0.00  0.00 99.90 15.00  67.5   0.0 139.2  1.00  1.00  1.00
 1982  13    99    89 -14.5  15.4   0.0  0.00  0.63  1.00  0.00  1.00  0.00  0.00 -0.01  0.00  1.00  0.00  0.00  0.00  0.00 99.90 15.00  67.4   0.0 139.2  1.00  1.00  1.00
 1982  14   100    90  -3.0  15.4   0.0  0.00  0.63  1.00  0.00  1.00  0.00  0.00 -0.01  0.00  1.00  0.00  0.00  0.00  0.00 99.90 15.00  68.9   0.0 139.2  1.00  1.00  1.00
 1982  15   101    91  -1.4  15.4   0.0  0.00  0.62  1.00  0.00  1.00  0.00  0.00 -0.01  0.00  1.00  0.00  0.00  0.00  0.00 99.90 15.00  68.1   0.0 139.2  1.00  1.00  1.00
 1982  16   102    92 -14.1  15.4   0.0  0.00  0.62  1.00  0.00  1.00  0.00  0.00 -0.01  0.00  1.00  0.00  0.00  0.00  0.00 99.90 15.00  68.0   0.0 139.2  1.00  1.00  1.00
 1982  17   103    93  -8.7  15.4   0.0  0.00  0.62  1.00  0.00  1.00  0.00  0.00 -0.01  0.00  1.00  0.00  0.00  0.00  0.00 99.90 15.00  67.8   0.0 139.2  1.00  1.00  1.00
 1982  18   104    94   0.3  15.4   0.1  0.00  0.62  1.00  0.00  0.94  0.00  0.00 -0.01  0.00  0.97  0.00  0.00  0.00  0.00 99.90 15.00  66.5   0.0 139.2  1.00  1.00  1.00
 1982  19   105    95  -0.6  15.4   0.0  0.00  0.61  1.00  0.00  1.00  0.00  0.00 -0.01  0.00  1.00  0.00  0.00  0.00  0.00 99.90 15.00  65.5   0.0 139.2  1.00  1.00  1.00
 1982  20   106    96  -3.3  15.4   0.0  0.00  0.61  1.00  0.00  1.00  0.00  0.00 -0.01  0.00  1.00  0.00  0.00  0.00  0.00 99.90 15.00  65.4   0.0 139.2  1.00  1.00  1.00
 1982  21   107    97  -5.0  15.4   0.0  0.00  0.61  1.00  0.00  1.00  0.00  0.00 -0.01  0.00  1.00  0.00  0.00  0.00  0.00 99.90 15.00  65.4   0.0 139.2  1.00  1.00  1.00
 1982  22   108    98  -2.2  15.4   0.0  0.00  0.60  1.00  0.00  1.00  0.00  0.00 -0.01  0.00  1.00  0.00  0.00  0.00  0.00 99.90 15.00  67.0   0.0 139.2  1.00  1.00  1.00
 1982  23   109    99 -10.9  15.4   0.0  0.00  0.60  1.00  0.00  1.00  0.00  0.00 -0.01  0.00  1.00  0.00  0.00  0.00  0.00 99.90 15.00  66.9   0.0 139.2  1.00  1.00  1.00
 1982  24   110   100  -7.5  15.4   0.0  0.00  0.60  1.00  0.00  1.00  0.00  0.00 -0.01  0.00  1.00  0.00  0.00  0.00  0.00 99.90 15.00  66.6   0.0 139.2  1.00  1.00  1.00
 1982  25   111   101  -1.1  15.4   0.0  0.00  0.59  1.00  0.00  1.00  0.00  0.00 -0.01  0.00  1.00  0.00  0.00  0.00  0.00 99.90 15.00  71.2   0.0 139.2  1.00  1.00  1.00
 1982  26   112   102   1.4  15.4   0.6  0.00  0.59  0.98  0.00  0.72  0.00  0.00 -0.01  0.00  0.86  0.00  0.00  0.00  0.00 99.90 15.00  75.5   0.0 139.1  1.00  1.00  1.00
 1982  27   113   103   8.1  15.5   3.3  0.00  0.59  0.72  0.00  0.00  0.00  0.00 -0.01  0.00  0.19  0.00  0.00  0.00  0.00 99.90 15.00  74.3   0.0 139.1  1.00  1.00  1.00
 1982  28   114   104   0.0  15.5   0.0  0.00  0.58  1.00  0.00  1.00  0.00  0.00 -0.01  0.00  1.00  0.00  0.00  0.00  0.00 99.90 15.00  72.9   0.0 139.1  1.00  1.00  1.00
 1982  29   115   105   5.2  15.6   2.2  0.00  0.58  0.83  0.00  0.00  0.00  0.00 -0.01  0.00  0.48  0.00  0.00  0.00  0.00 99.90 15.00  73.3   0.0 139.1  1.00  1.00  1.00
 1982  30   116   106   0.0  15.6   0.0  0.00  0.58  1.00  0.00  1.00  0.00  0.00 -0.01  0.00  1.00  0.00  0.00  0.00  0.00 99.90 15.00  77.9   0.0 139.1  1.00  1.00  1.00
 1982  31   117   107  -7.2  15.6   0.0  0.00  0.57  1.00  0.00  1.00  0.00  0.00 -0.01  0.00  1.00  0.00  0.00  0.00  0.00 99.90 15.00  77.7   0.0 139.2  1.00  1.00  1.00
 1982  32   118   108  -1.9  15.6   0.0  0.00  0.57  1.00  0.00  1.00  0.00  0.00 -0.01  0.00  1.00  0.00  0.00  0.00  0.00 99.90 15.00  77.2   0.0 139.1  1.00  1.00  1.00
 1982  33   119   109  -3.9  15.6   0.0  0.00  0.57  1.00  0.00  1.00  0.00  0.00 -0.01  0.00  1.00  0.00  0.00  0.00  0.00 99.90 15.00  77.0   0.0 139.0  1.00  1.00  1.00
 1982  34   120   110 -13.0  15.6   0.0  0.00  0.56  1.00  0.00  1.00  0.00  0.00 -0.01  0.00  1.00  0.00  0.00  0.00  0.00 99.90 15.00  77.0   0.0 139.0  1.00  1.00  1.00
 1982  35   121   111 -17.0  15.6   0.0  0.00  0.56  1.00  0.00  1.00  0.00  0.00 -0.01  0.00  1.00  0.00  0.00  0.00  0.00 99.90 15.00  77.0   0.0 139.0  1.00  1.00  1.00
 1982  36   122   112 -15.5  15.6   0.0  0.00  0.56  1.00  0.00  1.00  0.00  0.00 -0.01  0.00  1.00  0.00  0.00  0.00  0.00 99.90 15.00  76.9   0.0 139.0  1.00  1.00  1.00
 1982  37   123   113 -13.8  15.6   0.0  0.00  0.55  1.00  0.00  1.00  0.00  0.00 -0.01  0.00  1.00  0.00  0.00  0.00  0.00 99.90 15.00  76.7   0.0 139.0  1.00  1.00  1.00
 1982  38   124   114  -6.4  15.6   0.0  0.00  0.55  1.00  0.00  1.00  0.00  0.00 -0.01  0.00  1.00  0.00  0.00  0.00  0.00 99.90 15.00  78.1   0.0 139.0  1.00  1.00  1.00
 1982  39   125   115  -8.1  15.6   0.0  0.00  0.54  1.00  0.00  1.00  0.00  0.00 -0.01  0.00  1.00  0.00  0.00  0.00  0.00 99.90 15.00  78.1   0.0 139.0  1.00  1.00  1.00
 1982  40   126   116 -14.4  15.6   0.0  0.00  0.54  1.00  0.00  1.00  0.00  0.00 -0.01  0.00  1.00  0.00  0.00  0.00  0.00 99.90 15.00  78.0   0.0 139.0  1.00  1.00  1.00
 1982  41   127   117 -11.6  15.6   0.0  0.00  0.54  1.00  0.00  1.00  0.00  0.00 -0.01  0.00  1.00  0.00  0.00  0.00  0.00 99.90 15.00  77.8   0.0 139.0  1.00  1.00  1.00
 1982  42   128   118  -8.9  15.6   0.0  0.00  0.53  1.00  0.00  1.00  0.00  0.00 -0.01  0.00  1.00  0.00  0.00  0.00  0.00 99.90 15.00  77.5   0.0 139.0  1.00  1.00  1.00
 1982  43   129   119  -2.2  15.6   0.0  0.00  0.53  1.00  0.00  1.00  0.00  0.00 -0.01  0.00  1.00  0.00  0.00  0.00  0.00 99.90 15.00  87.1   0.0 137.2  1.00  1.00  1.00
 1982  44   130   120  -4.1  15.6   0.0  0.00  0.52  1.00  0.00  1.00  0.00  0.00 -0.01  0.00  1.00  0.00  0.00  0.00  0.00 99.90 15.00  85.8   0.0 134.8  1.00  1.00  1.00
 1982  45   131   121   2.8  15.6   1.3  0.00  0.52  0.93  0.00  0.44  0.00  0.00 -0.01  0.00  0.72  0.00  0.00  0.00  0.00 99.90 15.00  85.3   0.0 131.8  1.00  1.00  1.00
 1982  46   132   122   4.7  15.7   2.3  0.00  0.52  0.85  0.00  0.06  0.00  0.00 -0.01  0.00  0.53  0.00  0.00  0.00  0.00 99.90 15.00  80.0   0.0 120.4  1.00  1.00  1.00
 1982  47   133   123   3.6  15.7   1.8  0.00  0.51  0.90  0.00  0.28  0.00  0.00 -0.01  0.00  0.64  0.00  0.00  0.00  0.00 99.90 15.00  79.2   0.0 119.1  1.00  1.00  1.00
 1982  48   134   124   2.5  15.7   1.2  0.00  0.51  0.94  0.00  0.50  0.00  0.00 -0.01  0.00  0.75  0.00  0.00  0.00  0.00 99.90 15.00  78.2   0.0 117.7  1.00  1.00  1.00
 1982  49   135   125   7.0  15.8   3.5  0.00  0.50  0.76  0.00  0.00  0.00  0.00 -0.01  0.00  0.30  0.00  0.00  0.00  0.00 99.90 15.00  80.9   0.0 116.5  1.00  1.00  1.00
 1982  50   136   126   8.9  21.0   4.5  0.00  0.50  0.68  0.00  0.00  0.00  0.00 -0.01  0.00  0.11  0.00  0.00  0.00  0.00 99.90 15.00  77.9   0.0 115.3  1.00  1.00  1.00
 1982  51   137   127  11.1  21.1   5.6  0.00  0.49  0.60  0.00  0.00  0.00  0.00 -0.01  0.00  0.00  0.00  0.00  0.00  0.00 99.90 15.00  77.0   0.0 115.3  1.00  1.00  1.00
 1982  52   138   128  10.0  21.2   5.1  0.00  0.49  0.64  0.00  0.00  0.00  0.00 -0.01  0.00  0.00  0.00  0.00  0.00  0.00 99.90 15.00  75.7   0.0 115.3  1.00  1.00  1.00
 1982  53   139   129  12.2  21.3   6.3  0.00  0.49  0.55  0.00  0.00  0.00  0.00 -0.01  0.00  0.00  0.00  0.00  0.00  0.00 99.90 15.00  75.2   0.0 115.5  1.00  1.00  1.00
 1982  54   140   130   9.4  21.4   4.9  0.00  0.48  0.66  0.00  0.00  0.00  0.00 -0.01  0.00  0.06  0.00  0.00  0.00  0.00 99.90 15.00  75.4   0.0 115.6  1.00  1.00  1.00
 1982  55   141   131   3.3  21.4   1.7  0.00  0.48  0.91  0.00  0.33  0.00  0.00 -0.01  0.00  0.67  0.00  0.00  0.00  0.00 99.90 15.00  74.5   0.0 115.8  1.00  1.00  1.00
 1982  56   142   132  -1.4  21.4   0.0  0.00  0.47  1.00  0.00  1.00  0.00  0.00 -0.01  0.00  1.00  0.00  0.00  0.00  0.00 99.90 15.00  73.7   0.0 116.0  1.00  1.00  1.00
 1982  57   143   133  -2.0  21.4   0.0  0.00  0.47  1.00  0.00  1.00  0.00  0.00 -0.01  0.00  1.00  0.00  0.00  0.00  0.00 99.90 15.00  72.9   0.0 116.0  1.00  1.00  1.00
 1982  58   144   134   1.7  21.4   0.9  0.00  0.46  0.97  0.00  0.67  0.00  0.00 -0.01  0.00  0.83  0.00  0.00  0.00  0.00 99.90 15.00  72.3   0.0 116.0  1.00  1.00  1.00
 1982  59   145   135   4.7  21.5   2.5  0.00  0.46  0.85  0.00  0.06  0.00  0.00 -0.01  0.00  0.53  0.00  0.00  0.00  0.00 99.90 15.00  71.9   0.0 116.0  1.00  1.00  1.00
 1982  60   146   136   8.4  21.5   4.5  0.00  0.46  0.71  0.00  0.00  0.00  0.00 -0.01  0.00  0.16  0.00  0.00  0.00  0.00 99.90 15.00  71.6   0.0 116.0  1.00  1.00  1.00
 1982  61   147   137   8.7  21.6   4.7  0.00  0.45  0.69  0.00  0.00  0.00  0.00 -0.01  0.00  0.13  0.00  0.00  0.00  0.00 99.90 15.00  71.5   0.0 116.0  1.00  1.00  1.00
 1982  62   148   138  -0.2  21.6   0.0  0.00  0.45  1.00  0.00  1.00  0.00  0.00 -0.01  0.00  1.00  0.00  0.00  0.00  0.00 99.90 15.00  71.4   0.0 116.0  1.00  1.00  1.00
 1982  63   149   139  -3.7  21.6   0.0  0.00  0.44  1.00  0.00  1.00  0.00  0.00 -0.01  0.00  1.00  0.00  0.00  0.00  0.00 99.90 15.00  71.3   0.0 116.0  1.00  1.00  1.00
 1982  64   150   140  -4.2  21.6   0.0  0.00  0.44  1.00  0.00  1.00  0.00  0.00 -0.01  0.00  1.00  0.00  0.00  0.00  0.00 99.90 15.00  71.0   0.0 116.0  1.00  1.00  1.00
 1982  65   151   141  -3.0  21.6   0.0  0.00  0.43  1.00  0.00  1.00  0.00  0.00 -0.01  0.00  1.00  0.00  0.00  0.00  0.00 99.90 15.00  70.5   0.0 116.0  1.00  1.00  1.00
 1982  66   152   142  -3.0  21.6   0.0  0.00  0.43  1.00  0.00  1.00  0.00  0.00 -0.01  0.00  1.00  0.00  0.00  0.00  0.00 99.90 15.00  69.9   0.0 116.0  1.00  1.00  1.00
 1982  67   153   143   2.5  21.6   1.4  0.00  0.43  0.94  0.00  0.50  0.00  0.00 -0.01  0.00  0.75  0.00  0.00  0.00  0.00 99.90 15.00  69.6   0.0 116.0  1.00  1.00  1.00
 1982  68   154   144   1.4  21.7   0.8  0.00  0.42  0.98  0.00  0.72  0.00  0.00 -0.01  0.00  0.86  0.00  0.00  0.00  0.00 99.90 15.00  69.1   0.0 116.0  1.00  1.00  1.00
 1982  69   155   145  11.1  21.7   6.5  0.00  0.42  0.60  0.00  0.00  0.00  0.00 -0.01  0.00  0.00  0.00  0.00  0.00  0.00 99.90 15.00  69.2   0.0 116.0  1.00  1.00  1.00
 1982  70   156   146  10.0  21.8   5.9  0.00  0.41  0.64  0.00  0.00  0.00  0.00 -0.01  0.00  0.00  0.00  0.00  0.00  0.00 99.90 15.00  69.2   0.0 116.0  1.00  1.00  1.00
 1982  71   157   147  12.8  21.9   7.6  0.00  0.41  0.53  0.00  0.00  0.00  0.00 -0.01  0.00  0.00  0.00  0.00  0.00  0.00 99.90 15.00  69.4   0.0 116.0  1.00  1.00  1.00
 1982  72   158   148   8.0  22.0   4.8  0.00  0.40  0.72  0.00  0.00  0.00  0.00 -0.01  0.00  0.20  0.00  0.00  0.00  0.00 99.90 15.00  69.4   0.1 116.0  1.00  1.00  1.00
 1982  73   159   149   7.8  22.1   4.7  0.00  0.40  0.73  0.00  0.00  0.00  0.00 -0.01  0.00  0.22  0.00  0.00  0.00  0.00 99.90 15.00  70.0   0.0 116.1  1.00  1.00  1.00
 1982  74   160   150  10.0  22.2   6.1  0.00  0.39  0.64  0.00  0.00  0.00  0.00 -0.01  0.00  0.00  0.00  0.00  0.00  0.00 99.90 15.00  91.3   0.0 116.3  1.00  1.00  1.00
 1982  75   161   151  13.0  22.3   8.0  0.00  0.39  0.52  0.00  0.00  0.00  0.00 -0.01  0.00  0.00  0.00  0.00  0.00  0.00 99.90 15.00  96.0   0.1 114.7  1.00  1.00  1.00
 1982  76   162   152  13.9  22.4   8.5  0.00  0.39  0.48  0.00  0.00  0.00  0.00 -0.01  0.00  0.00  0.00  0.00  0.00  0.00 99.90 14.35  87.8   0.1 105.0  1.00  1.00  1.00
 1982  77   163   153   9.8  22.5   6.0  0.00  0.38  0.65  0.00  0.00  0.00  0.00 -0.01  0.00  0.02  0.00  0.00  0.00  0.00 99.90 15.00  86.1   0.0 103.3  1.00  1.00  1.00
 1982  78   164   154  16.1  22.7  10.0  0.00  0.38  0.40  0.00  0.00  0.00  0.00 -0.01  0.00  0.00  0.00  0.00  0.00  0.00 99.90 11.43  96.9   0.2 102.6  1.00  1.00  1.00
 1982  79   165   155   8.3  22.8   5.2  0.00  0.37  0.71  0.00  0.00  0.00  0.00 -0.01  0.00  0.17  0.00  0.00  0.00  0.00 99.90  8.68  89.4   0.2  96.9  1.00  1.00  1.00
 1982  80   166   156   2.5  22.8   1.6  0.00  0.37  0.94  0.00  0.50  0.00  0.00 -0.01  0.00  0.75  0.00  0.00  0.00  0.00 99.90  9.00  85.5   0.2  95.7  1.00  1.00  1.00
 1982  81   167   157   3.9  22.9   2.5  0.00  0.36  0.88  0.00  0.22  0.00  0.00 -0.01  0.00  0.61  0.00  0.00  0.00  0.00 99.90  7.10  84.0   0.2  95.9  1.00  1.00  1.00
 1982  82   168   158   7.8  23.0   5.0  0.00  0.36  0.73  0.00  0.00  0.00  0.00 -0.01  0.00  0.22  0.00  0.00  0.00  0.00 99.90 11.88  83.2   0.1  96.0  1.00  1.00  1.00
 1982  83   169   159   6.6  23.1   4.3  0.00  0.36  0.77  0.00  0.00  0.00  0.00 -0.01  0.00  0.34  0.00  0.00  0.00  0.00 99.90  6.91  82.4   0.2  96.1  1.00  1.00  1.00
 1982  84   170   160   3.9  23.1   2.5  0.00  0.35  0.89  0.00  0.23  0.00  0.00 -0.01  0.00  0.62  0.00  0.00  0.00  0.00 99.90  5.62  84.3   0.3  95.8  1.00  1.00  1.00
 1982  85   171   161   3.0  23.2   2.0  0.00  0.35  0.92  0.00  0.39  0.00  0.00 -0.01  0.00  0.69  0.00  0.00  0.00  0.00 99.90  6.39  83.1   0.3  95.6  1.00  1.00  1.00
 1982  86   172   162   5.6  23.2   3.6  0.00  0.34  0.82  0.00  0.00  0.00  0.00 -0.01  0.00  0.44  0.00  0.00  0.00  0.00 99.90  7.54  82.1   0.3  95.5  1.00  1.00  1.00
 1982  87   173   163   6.9  23.3   4.6  0.00  0.34  0.76  0.00  0.00  0.00  0.00 -0.01  0.00  0.31  0.00  0.00  0.00  0.00 99.90  9.33  81.4   0.2  95.1  0.98  0.98  0.99
 1982  88   174   164  10.3  23.4   6.8  0.00  0.34  0.63  0.00  0.00  0.00  0.03 -0.01  0.00  0.00  0.00  0.03  0.00  0.03 99.90 11.52  81.0   0.2  94.6  0.88  0.93  0.99
 1982  89   175   165  15.0  23.6  10.0  0.00  0.33  0.44  0.00  0.00  0.00  0.13 -0.01  0.00  0.00  0.00  0.13  0.00  0.13 99.90  3.71  81.4   0.6  94.2  0.76  0.81  0.98
 1982  90   176   166  10.9  23.7   7.3  0.00  0.33  0.61  0.00  0.00  0.00  0.28 -0.01  0.00  0.00  0.00  0.28  0.00  0.28 99.90  3.11  80.5   0.8  93.9  0.72  0.75  0.96
 1982  91   177   167  13.9  23.8   9.4  0.00  0.32  0.48  0.00  0.00  0.00  0.32 -0.01  0.00  0.00  0.00  0.32  0.00  0.32 89.96  2.79  79.6   0.9  93.6  0.68  0.69  0.95
 1982  92   178   168  17.0  24.0  11.5  0.00  0.32  0.36  0.00  0.00  0.00  0.37 -0.01  0.00  0.00  0.00  0.37  0.00  0.37 96.27  3.13  79.1   0.8  93.4  0.64  0.66  0.94
 1982  93   179   169   7.5  24.0   5.1  0.00  0.32  0.74  0.00  0.00  0.00  0.41 -0.01  0.00  0.25  0.00  0.41  0.00  0.41 80.24  2.75  77.9   1.0  93.3  0.65  0.67  0.93
 1982  94   180   170   5.2  24.1   3.6  0.00  0.31  0.83  0.00  0.00  0.00  0.40 -0.01  0.00  0.48  0.00  0.40  0.00  0.40 99.90  3.98  76.9   0.7  93.1  0.67  0.69  0.93
 1982  95   181   171   3.6  24.1   2.5  0.00  0.31  0.90  0.00  0.28  0.00  0.38 -0.01  0.00  0.64  0.00  0.38  0.00  0.38 99.90  8.71  82.3   0.3  92.8  0.69  0.72  0.94
 1982  96   182   172  -0.8  24.1   0.0  0.00  0.30  1.00  0.00  1.00  0.00  0.36 -0.01  0.00  1.00  0.00  0.36  0.00  0.36 99.90  6.12  80.8   0.6  92.7  0.70  0.73  0.94
 1982  97   183   173   3.0  24.1   2.1  0.00  0.30  0.92  0.00  0.39  0.00  0.34 -0.01  0.00  0.69  0.00  0.34  0.00  0.34 99.90 15.00  80.2   0.2  92.5  0.72  0.75  0.94
 1982  98   184   174   4.4  24.2   3.1  0.00  0.30  0.86  0.00  0.12  0.00  0.32 -0.01  0.00  0.56  0.00  0.32  0.00  0.32 99.90  7.82  79.4   0.5  92.3  0.74  0.77  0.95
 1982  99   185   175   4.1  24.2   2.9  0.00  0.29  0.87  0.00  0.17  0.00  0.30 -0.01  0.00  0.59  0.00  0.30  0.00  0.30 76.07  3.57  77.9   1.0  91.9  0.76  0.79  0.95
 1982 100   186   176   8.7  24.3   6.2  0.00  0.29  0.69  0.00  0.00  0.00  0.28 -0.01  0.00  0.13  0.00  0.28  0.00  0.28 68.63  3.47  76.5   1.1  91.4  0.74  0.77  0.94
 1982 101   187   177  13.6  24.4   9.7  0.00  0.28  0.50  0.00  0.00  0.00  0.30 -0.01  0.00  0.00  0.00  0.30  0.00  0.30 59.68  3.14  75.3   1.3  91.0  0.70  0.71  0.93
 1982 102   188   178  20.2  24.6  14.6  0.00  0.28  0.23  0.00  0.00  0.00  0.35 -0.01  0.00  0.02  0.00  0.35  0.00  0.35 44.54  2.33  74.0   1.7  90.6  0.64  0.64  0.92
 1982 103   189   179  16.1  24.7  11.7  0.00  0.28  0.40  0.00  0.00  0.00  0.41 -0.01  0.00  0.00  0.00  0.41  0.00  0.41 43.80  2.42  72.6   1.7  90.4  0.61  0.60  0.91
 1982 104   190   180  21.1  24.8  15.4  0.00  0.27  0.19  0.00  0.00  0.00  0.45 -0.01  0.00  0.08  0.00  0.45  0.00  0.45 36.40  2.16  71.1   2.0  90.1  0.58  0.57  0.90
 1982 105   191   181  24.2  25.0  17.7  0.00  0.27  0.07  0.00  0.00  0.00  0.48 -0.01  0.00  0.28  0.00  0.48  0.00  0.48 45.13  2.86  70.1   1.6  90.0  0.57  0.56  0.90
 1982 106   192   182  18.4  25.1  13.5  0.00  0.27  0.31  0.00  0.00  0.00  0.50 -0.01  0.00  0.00  0.00  0.50  0.00  0.50 99.90  6.71  70.1   0.7  90.0  0.56  0.57  0.90
 1982 107   193   183  10.0  25.2   7.4  0.00  0.26  0.64  0.00  0.00  0.00  0.51 -0.01  0.00  0.00  0.00  0.51  0.00  0.51 35.95  2.45  68.6   1.9  89.9  0.55  0.57  0.89
 1982 108   194   184  12.2  25.2   9.0  0.00  0.26  0.55  0.00  0.00  0.00  0.52 -0.01  0.00  0.00  0.00  0.52  0.00  0.52 34.15  2.12  67.1   2.0  89.8  0.54  0.56  0.88
 1982 109   195   185  15.3  25.3  11.4  0.00  0.25  0.43  0.00  0.00  0.00  0.52 -0.01  0.00  0.00  0.00  0.52  0.00  0.52 33.01  1.94  67.3   2.0  89.6  0.53  0.55  0.88
 1982 110   196   186   6.7  25.3   6.6  0.00  0.00  0.77  0.00  0.00  0.00  0.54 -0.01  0.00  0.33  0.00  0.54  0.00  0.54 36.22  2.27  65.3   1.8  89.5  0.54  0.55  0.87
 1982 111   197   187   7.0  25.3   7.0  0.00  0.00  0.76  0.00  0.00  0.00  0.53 -0.01  0.00  0.30  0.00  0.53  0.00  0.53 37.28  2.41  63.4   1.7  89.2  0.55  0.55  0.87
 1982 112   198   188   8.6  25.3   8.6  0.00  0.00  0.70  0.00  0.00  0.00  0.52 -0.01  0.00  0.14  0.00  0.52  0.00  0.52 29.27  1.99  61.2   2.1  88.9  0.55  0.55  0.87
 1982 113   199   189  11.7  25.3  11.7  0.00  0.00  0.57  0.00  0.00  0.00  0.52 -0.01  0.00  0.00  0.00  0.52  0.00  0.52 30.19  2.17  59.7   2.0  88.6  0.55  0.53  0.86
 1982 114   200   190  16.4  25.3  16.4  0.00  0.00  0.38  0.00  0.00  0.00  0.52 -0.01  0.00  0.00  0.00  0.52  0.00  0.52 30.48  2.29  58.5   1.9  88.3  0.54  0.51  0.86
 1982 115   201   191  13.1  25.3  13.1  0.00  0.00  0.52  0.00  0.00  0.00  0.53 -0.01  0.00  0.00  0.00  0.53  0.00  0.53 51.81  3.62  57.9   1.1  88.0  0.54  0.50  0.86
 1982 116   202   192  14.1  30.5  14.1  0.00  0.00  0.47  0.00  0.00  0.00  0.53 -0.01  0.00  0.00  0.00  0.53  0.00  0.53 22.43  1.38  56.0   2.5  87.8  0.54  0.48  0.86
 1982 117   203   193  10.6  31.0  10.6  0.00  0.00  0.62  0.00  0.00  0.00  0.54 -0.01  0.00  0.00  0.00  0.54  0.00  0.54 81.33  4.00  55.8   0.7  87.5  0.54  0.48  0.86
 1982 118   204   194   8.4  31.4   8.4  0.00  0.00  0.71  0.00  0.00  0.00  0.54 -0.01  0.00  0.16  0.00  0.54  0.00  0.54 99.90 15.00  58.6   0.1  87.3  0.55  0.49  0.86
 1982 119   205   195  10.0  31.9  10.0  0.00  0.00  0.64  0.00  0.00  0.00  0.53 -0.01  0.00  0.00  0.00  0.53  0.00  0.53 99.90  6.40  73.9   0.6  87.1  0.55  0.49  0.86
 1982 120   206   196  13.9  32.5  13.9  0.00  0.00  0.48  0.00  0.00  0.00  0.52 -0.01  0.00  0.00  0.00  0.52  0.00  0.52 67.17  5.95  72.8   1.1  87.0  0.58  0.52  0.86
 1982 121   207   197  16.1  33.3  16.1  0.00  0.00  0.39  0.00  0.00  0.00  0.50 -0.01  0.00  0.00  0.00  0.50  0.00  0.50 46.71  4.41  70.7   1.5  86.3  0.59  0.53  0.86
 1982 122   208   198  18.0  34.1  18.0  0.00  0.00  0.32  0.00  0.00  0.00  0.48 -0.01  0.00  0.00  0.00  0.48  0.00  0.48 33.22  3.38  67.8   2.0  85.7  0.59  0.52  0.86
 1982 123   209   199  22.0  35.2  22.0  0.00  0.00  0.16  0.00  0.00  0.00  0.48 -0.01  0.00  0.13  0.00  0.48  0.00  0.48 25.43  2.78  64.8   2.5  85.3  0.60  0.50  0.86
 1982 124   210   200  24.5  36.3  24.5  0.00  0.00  0.06  0.00  0.00  0.00  0.47 -0.01  0.00  0.30  0.00  0.47  0.00  0.47 19.52  1.87  61.4   3.1  85.1  0.61  0.49  0.86
 1982 125   211   201  18.0  37.1  18.0  0.00  0.00  0.32  0.00  0.00  0.00  0.47 -0.01  0.00  0.00  0.00  0.47  0.00  0.47 93.70  8.93  61.4   0.7  84.9  0.61  0.49  0.86
 1982 126   212   202  10.9  37.6  10.9  0.00  0.00  0.61  0.00  0.00  0.00  0.46 -0.01  0.00  0.00  0.00  0.46  0.00  0.46 61.31  3.95  91.7   1.5  84.8  0.61  0.48  0.86
 1982 127   213   203  14.4  38.3  14.4  0.00  0.00  0.46  0.00  0.00  0.00  0.46 -0.01  0.00  0.00  0.00  0.46  0.00  0.46 28.09  3.10  90.3   3.2  85.0  0.64  0.53  0.86
 1982 128   214   204  20.5  39.3  20.5  0.00  0.00  0.22  0.00  0.00  0.00  0.43 -0.01  0.00  0.04  0.00  0.43  0.00  0.43 22.78  2.78  85.1   3.7  84.3  0.65  0.54  0.86
 1982 129   215   205  22.5  40.4  22.5  0.00  0.00  0.14  0.00  0.00  0.00  0.42 -0.01  0.00  0.17  0.00  0.42  0.00  0.42 23.06  3.07  81.2   3.5  83.9  0.67  0.54  0.86
 1982 130   216   206  22.5  41.6  22.5  0.00  0.00  0.14  0.00  0.00  0.00  0.40 -0.01  0.00  0.17  0.00  0.40  0.00  0.40 29.95  4.02  78.1   2.6  83.4  0.69  0.55  0.86
 1982 131   217   207  22.0  42.7  22.0  0.00  0.00  0.16  0.00  0.00  0.00  0.37 -0.01  0.00  0.13  0.00  0.37  0.00  0.37 23.51  3.08  75.1   3.2  83.3  0.72  0.62  0.86
 1982 132   218   208  18.9  43.7  18.9  0.00  0.00  0.28  0.00  0.00  0.00  0.33 -0.01  0.00  0.00  0.00  0.33  0.00  0.33 74.72  7.45 101.0   1.4  83.0  0.75  0.68  0.87
 1982 133   219   209  20.0  44.8  20.0  0.00  0.00  0.24  0.00  0.00  0.00  0.30 -0.01  0.00  0.00  0.00  0.30  0.00  0.30 67.60  8.09  99.9   1.5  83.2  0.79  0.74  0.88
 1982 134   220   210  17.8  45.7  17.8  0.00  0.00  0.33  0.00  0.00  0.00  0.26 -0.01  0.00  0.00  0.00  0.26  0.00  0.26 65.76  8.04  99.0   1.5  83.4  0.82  0.80  0.89
 1982 135   221   211  17.8  46.6  17.8  0.00  0.00  0.33  0.00  0.00  0.00  0.22 -0.01  0.00  0.00  0.00  0.22  0.00  0.22 30.65  3.55 106.1   3.5  83.6  0.85  0.87  0.90
 1982 136   222   212  19.5  47.7  19.5  0.00  0.00  0.26  0.00  0.00  0.00  0.19 -0.01  0.00  0.00  0.00  0.19  0.00  0.19 70.71  8.42 106.5   1.5  83.2  0.88  0.91  0.91
 1982 137   223   213  19.5  48.7  19.5  0.00  0.00  0.26  0.00  0.00  0.00  0.15 -0.01  0.00  0.00  0.00  0.15  0.00  0.15 49.95  5.91 108.6   2.2  83.4  0.91  0.96  0.92
 1982 138   224   214  20.3  49.7  20.3  0.00  0.00  0.23  0.00  0.00  0.00  0.11 -0.01  0.00  0.02  0.00  0.11  0.00  0.11 31.27  3.86 105.7   3.4  83.5  0.94  1.00  0.93
 1982 139   225   215  23.6  53.8  23.6  0.00  0.00  0.10  0.00  0.00  0.00  0.07 -0.01  0.00  0.24  0.00  0.07  0.00  0.07 30.50  4.03 101.2   3.3  83.3  0.96  1.00  0.94
 1982 140   226   216  21.1  58.0  21.1  0.00  0.00  0.20  0.00  0.00  0.00  0.05 -0.01  0.00  0.07  0.00  0.05  0.00  0.05 53.45  7.35  99.4   1.9  83.1  0.98  1.00  0.94
 1982 141   227   217  18.0  64.0  18.0  0.00  0.00  0.32  0.00  0.00  0.00  0.03 -0.01  0.00  0.00  0.00  0.03  0.00  0.03 46.64  5.37 119.9   2.6  83.5  0.99  1.00  0.95
 1982 142   228   218  16.1  70.3  16.1  0.00  0.00  0.39  0.00  0.00  0.00  0.01 -0.01  0.00  0.00  0.00  0.01  0.00  0.01 58.81  6.97 117.7   2.0  83.7  1.00  1.00  0.95
 1982 143   229   219  18.0  71.7  18.0  0.00  0.00  0.32  0.00  0.00  0.00  0.00 -0.01  0.00  0.00  0.00  0.00  0.00  0.00 39.89  4.93 113.6   2.8  84.1  1.00  1.00  0.96
 1982 144   230   220  18.7  73.1  18.7  0.00  0.00  0.29  0.00  0.00  0.00  0.00 -0.01  0.00  0.00  0.00  0.00  0.00  0.00 99.90 12.60 112.8   1.1  84.1  1.00  1.00  0.96
 1982 145   231   221  20.0  74.7  20.0  0.00  0.00  0.24  0.00  0.00  0.00  0.00 -0.01  0.00  0.00  0.00  0.00  0.00  0.00 75.14  8.28 128.0   1.7  84.6  1.00  1.00  0.97
 1982 146   232   222  16.4  75.9  16.4  0.00  0.00  0.38  0.00  0.00  0.00  0.00 -0.01  0.00  0.00  0.00  0.00  0.00  0.00 49.63  4.79 146.3   2.9  83.3  1.00  1.00  0.97
 1982 147   233   223  18.4  77.4  18.4  0.00  0.00  0.31  0.00  0.00  0.00  0.00 -0.01  0.00  0.00  0.00  0.00  0.00  0.00 42.01  4.17 144.1   3.4  80.9  1.00  1.00  0.98
 1982 148   234   224  23.3  79.1  23.3  0.00  0.00  0.11  0.00  0.00  0.00  0.00 -0.01  0.00  0.22  0.00  0.00  0.00  0.00 65.43  7.01 134.2   2.1  73.4  1.00  1.00  0.98
 1982 149   235   225  21.4  80.2  21.4  0.00  0.00  0.18  0.00  0.00  0.00  0.00 -0.01  0.00  0.09  0.00  0.00  0.00  0.00 53.45  5.00 154.0   2.9  70.2  1.00  1.00  0.98
 1982 150   236   226  20.5  80.6  20.5  0.00  0.00  0.18  0.00  0.00  0.00  0.00 -0.01  0.00  0.04  0.00  0.00  0.00  0.00 67.71  6.64 147.4   2.2  66.0  1.00  1.00  0.96
 1982 151   237   227  17.8  81.0  17.8  0.00  0.00  0.18  0.00  0.00  0.00  0.00 -0.01  0.00  0.00  0.00  0.00  0.00  0.00 92.28  8.75 152.7   1.7  61.8  0.99  1.00  0.92
 1982 152   238   228  12.8  81.2  12.8  0.00  0.00  0.18  0.00  0.00  0.00  0.02 -0.01  0.00  0.00  0.00  0.02  0.00  0.02 46.17  4.83 138.5   3.0  54.4  1.00  1.00  0.92
 1982 153   239   229  15.2  81.5  15.2  0.00  0.00  0.18  0.00  0.00  0.00  0.00 -0.01  0.00  0.00  0.00  0.00  0.00  0.00 99.90 12.46 136.6   1.2  52.8  0.97  1.00  0.89
 1982 154   240   230  15.0  81.8  15.0  0.00  0.00  0.18  0.00  0.00  0.00  0.04 -0.01  0.00  0.00  0.00  0.04  0.00  0.04 99.90 15.00 136.2   0.8  52.3  0.99  1.00  0.89
 1982 155   241   231  17.0  82.2  17.0  0.00  0.00  0.18  0.00  0.00  0.00  0.02 -0.01  0.00  0.00  0.00  0.02  0.00  0.02 86.35  9.24 136.3   1.6  51.6  0.98  1.00  0.86
 1982 156   242   232  17.8  82.5  17.8  0.00  0.00  0.18  0.00  0.00  0.00  0.03 -0.01  0.00  0.00  0.00  0.03  0.00  0.03 55.78  6.14 132.5   2.4  51.2  0.92  0.99  0.83
 1982 157   243   233  25.5  83.0  25.5  0.00  0.00  0.18  0.00  0.05  0.00  0.10 -0.01  0.00  0.37  0.00  0.10  0.00  0.10 54.87  6.18 130.0   2.4  51.3  0.82  0.97  0.82
 1982 158   244   234  20.2  83.4  20.2  0.00  0.00  0.18  0.00  0.00  0.00  0.24 -0.01  0.00  0.02  0.00  0.24  0.00  0.24 47.59  5.08 137.3   2.9  51.4  0.77  0.97  0.80
 1982 159   245   235  25.8  83.9  25.8  0.00  0.00  0.18  0.00  0.08  0.00  0.31 -0.01  0.00  0.39  0.00  0.31  0.00  0.31 53.10  5.84 133.6   2.5  51.2  0.69  0.96  0.79
 1982 160   246   236  22.8  84.4  22.8  0.00  0.00  0.18  0.00  0.00  0.00  0.43 -0.01  0.00  0.18  0.00  0.43  0.00  0.43 52.93  5.28 147.3   2.8  51.0  0.62  0.95  0.78
 1982 161   247   237  16.4  84.7  16.4  0.00  0.00  0.18  0.00  0.00  0.00  0.53 -0.01  0.00  0.00  0.00  0.53  0.00  0.53 49.69  5.19 140.9   2.8  49.6  0.56  0.94  0.77
 1982 162   248   238  18.0  85.1  18.0  0.00  0.00  0.18  0.00  0.00  0.00  0.61 -0.01  0.00  0.00  0.00  0.61  0.00  0.61 99.90 12.97 139.2   1.1  49.8  0.51  0.94  0.77
 1982 163   249   239  19.8  85.4  19.8  0.00  0.00  0.18  0.00  0.00  0.00  0.68 -0.01  0.00  0.00  0.00  0.68  0.00  0.68 61.97  6.53 136.0   2.2  49.5  0.48  0.94  0.76
 1982 164   250   240  20.9  85.9  20.9  0.00  0.00  0.18  0.00  0.00  0.00  0.74 -0.01  0.00  0.06  0.00  0.74  0.00  0.74 85.94  8.09 134.1   1.6  49.6  0.45  0.94  0.76
 1982 165   251   241  23.9  86.3  23.9  0.00  0.00  0.18  0.00  0.00  0.00  0.78 -0.01  0.00  0.26  0.00  0.78  0.00  0.78 99.90  9.65 133.4   1.3  49.6  0.43  0.94  0.76
 1982 166   252   242  22.5  86.8  22.5  0.00  0.00  0.18  0.00  0.00  0.00  0.82 -0.01  0.00  0.17  0.00  0.82  0.00  0.82 81.61  6.68 153.2   1.9  49.7  0.42  0.95  0.76
 1982 167   253   243  18.6  87.1  18.6  0.00  0.00  0.18  0.00  0.00  0.00  0.85 -0.01  0.00  0.00  0.00  0.85  0.00  0.85 63.08  6.30 147.1   2.3  49.5  0.41  0.95  0.76
 1982 168   254   244  21.1  87.6  21.1  0.00  0.00  0.18  0.00  0.00  0.00  0.87 -0.01  0.00  0.07  0.00  0.87  0.00  0.87 86.22  8.84 143.3   1.7  48.7  0.40  0.96  0.76
 1982 169   255   245  21.1  88.0  21.1  0.00  0.00  0.18  0.00  0.00  0.00  0.90 -0.01  0.00  0.07  0.00  0.90  0.00  0.90 99.90 10.78 140.1   1.2  49.1  0.40  0.96  0.76
 1982 170   256   246  19.2  88.4  19.2  0.00  0.00  0.18  0.00  0.00  0.00  0.91 -0.01  0.00  0.00  0.00  0.91  0.00  0.91 80.67  7.40 137.0   1.7  49.1  0.40  0.97  0.75
 1982 171   257   247  22.8  88.8  22.8  0.00  0.00  0.18  0.00  0.00  0.00  0.93 -0.01  0.00  0.18  0.00  0.93  0.00  0.93 78.64  7.30 134.7   1.7  48.8  0.40  0.98  0.75
 1982 172   258   248  22.2  89.2  22.2  0.00  0.00  0.18  0.00  0.00  0.00  0.94 -0.01  0.00  0.15  0.00  0.94  0.00  0.94 99.90  9.97 133.0   1.3  48.9  0.40  0.99  0.75
 1982 173   259   249  20.8  89.7  20.8  0.00  0.00  0.18  0.00  0.00  0.00  0.96 -0.01  0.00  0.06  0.00  0.96  0.00  0.96 99.90  8.80 146.3   1.4  48.9  0.40  0.99  0.75
 1982 174   260   250  21.7  90.2  21.7  0.00  0.00  0.18  0.00  0.00  0.00  0.98 -0.01  0.00  0.11  0.00  0.98  0.00  0.98 99.90 15.00 143.3   0.8  49.1  0.40  1.00  0.75

*DSSAT Cropping System Model Ver. 4.8.5.000 -release  SEP 11, 2025 22:39:39

*RUN   2        : DRYLAND  - 60 KG N/HA     CSCER048 KSAS8101    2
 MODEL          : CSCER048 - Wheat
 EXPERIMENT     : KSAS8101 WH N RESPONSE,KANSAS STATE  3FE(N)*2IR  (DSSAT3)
 DATA PATH      :
 TREATMENT  2   : DRYLAND  - 60 KG N/HA     CSCER048
  
!........DATES.......  TEMP STAGE  ...PHENOLOGY....  .......PHOTOSYNTHESIS.......  .....GROWTH.....  ..TILLERS. WATER STRESS DETERMINANTS N STRESS DETERMINANTS       
@YEAR DOY   DAS   DAP TMEAN  GSTD    DU VRNFD DYLFD TFGEM  WFGE  TFPD  WFPD  NFPD CO2FD RSFPD  TFGD  WFGD  NFGD  WFTD  NFTD WAVRD WUPRD  SWXD  EOPD  SNXD LN%RD SN%RD RN%RD      
 1981 289    10     0  12.8   0.0  12.8  1.00  0.00  0.53  0.00  0.00  0.00  0.00 -0.01  0.00  0.00  0.00  0.00  0.00  0.00 99.90  1.00   3.8   0.0 238.6  0.00  0.00  0.00
 1981 290    11     1  16.1   5.6   0.0  1.00  0.00  0.40  0.00  0.00  0.00  0.00 -0.01  0.00  0.00  0.00  0.00  0.00  0.00 99.90  1.00   7.0   0.0 238.9  0.00  0.00  0.00
 1981 291    12     2   9.4   6.5   0.0  0.99  0.00  0.66  0.00  0.00  0.00  0.00 -0.01  0.00  0.06  0.00  0.00  0.00  0.00 99.90  1.00   7.1   0.0 239.4  0.00  0.00  1.00
 1981 292    13     3  12.2   7.8   0.2  0.98  0.00  0.55  0.00  0.00  0.00  0.00 -0.01  0.00  0.00  0.00  0.00  0.00  0.00 99.90  1.00   6.7   0.0 239.8  0.00  0.00  1.00
 1981 293    14     4  17.5   9.7   0.4  0.98  0.00  0.34  0.00  0.00  0.00  0.00 -0.01  0.00  0.00  0.00  0.00  0.00  0.00 99.90  1.00   9.0   0.0 240.2  0.00  0.00  1.00
 1981 294    15     5  11.7  10.0   0.3  0.97  0.00  0.57  0.00  0.00  0.00  0.00 -0.01  0.00  0.00  0.00  0.00  0.00  0.00 99.90  1.00  10.2   0.0 240.5  0.00  0.00  1.00
 1981 295    16     6   6.2  10.1   0.1  0.95  0.49  0.79  0.00  0.00  0.00  0.00 -0.01  0.00  0.38  0.00  0.00  0.00  0.00 99.90  1.00  10.3   0.0 240.9  1.00  0.00  1.00
 1981 296    17     7   1.9  10.2   0.0  0.93  0.49  0.96  0.00  0.61  0.00  0.00 -0.01  0.00  0.81  0.00  0.00  0.00  0.00 99.90 15.00  10.1   0.0 241.1  1.00  0.00  1.00
 1981 297    18     8   6.1  10.3   0.2  0.91  0.50  0.80  0.00  0.00  0.00  0.00 -0.01  0.00  0.39  0.00  0.00  0.00  0.00 99.90 15.00  10.6   0.0 241.3  1.00  0.88  1.00
 1981 298    19     9   8.4  10.5   0.4  0.89  0.50  0.71  0.00  0.00  0.00  0.00 -0.01  0.00  0.16  0.00  0.00  0.00  0.00 99.90 15.00  13.6   0.0 241.5  1.00  0.76  1.00
 1981 299    20    10   7.8  10.6   0.4  0.87  0.51  0.73  0.00  0.00  0.00  0.00 -0.01  0.00  0.22  0.00  0.00  0.00  0.00 99.90  6.99  13.8   0.0 241.6  1.00  0.78  1.00
 1981 300    21    11  13.7  10.9   0.9  0.87  0.51  0.49  0.00  0.00  0.00  0.00 -0.01  0.00  0.00  0.00  0.00  0.00  0.00 99.90  3.90  14.8   0.0 241.6  1.00  0.60  1.00
 1981 301    22    12  16.2  11.3   1.0  0.87  0.52  0.39  0.00  0.00  0.00  0.00 -0.01  0.00  0.00  0.00  0.00  0.00  0.00 99.90  2.76  16.3   0.0 241.7  1.00  0.49  1.00
 1981 302    23    13  17.5  11.6   1.1  0.87  0.52  0.34  0.00  0.00  0.00  0.00 -0.01  0.00  0.00  0.00  0.00  0.00  0.00 99.90  2.02  18.0   0.1 241.8  1.00  0.43  1.00
 1981 303    24    14  16.1  12.0   1.0  0.87  0.52  0.40  0.00  0.00  0.00  0.00 -0.01  0.00  0.00  0.00  0.00  0.00  0.00 99.90  7.66  19.7   0.0 242.1  0.97  0.42  0.99
 1981 304    25    15  13.9  12.1   0.9  0.87  0.53  0.48  0.00  0.00  0.00  0.03 -0.01  0.00  0.00  0.00  0.03  0.00  0.03 99.90 11.81  21.6   0.0 242.3  0.94  0.46  0.97
 1981 305    26    16  12.2  12.3   0.8  0.86  0.53  0.55  0.00  0.00  0.00  0.06 -0.01  0.00  0.00  0.00  0.06  0.00  0.06 99.90  7.64  51.2   0.0 242.6  0.93  0.50  0.96
 1981 306    27    17  10.2  12.4   0.7  0.85  0.54  0.63  0.00  0.00  0.00  0.08 -0.01  0.00  0.00  0.00  0.08  0.00  0.08 99.90 12.53  52.7   0.0 243.1  0.94  0.55  0.96
 1981 307    28    18  11.4  12.5   0.8  0.84  0.54  0.58  0.00  0.00  0.00  0.07 -0.01  0.00  0.00  0.00  0.07  0.00  0.07 99.90  5.48  51.5   0.1 243.5  0.95  0.61  0.97
 1981 308    29    19  10.2  12.6   0.8  0.83  0.54  0.63  0.00  0.00  0.00  0.06 -0.01  0.00  0.00  0.00  0.06  0.00  0.06 99.90  9.89  56.6   0.0 243.9  0.95  0.65  0.97
 1981 309    30    20  10.6  12.7   0.8  0.81  0.55  0.62  0.00  0.00  0.00  0.06 -0.01  0.00  0.00  0.00  0.06  0.00  0.06 99.90  2.78  54.8   0.1 244.2  0.96  0.70  0.97
 1981 310    31    21   6.7  12.8   0.6  0.79  0.55  0.77  0.00  0.00  0.00  0.05 -0.01  0.00  0.33  0.00  0.05  0.00  0.05 99.90  3.06  50.6   0.1 237.2  0.96  0.72  0.98
 1981 311    32    22   9.7  12.9   0.9  0.78  0.56  0.65  0.00  0.00  0.00  0.05 -0.01  0.00  0.03  0.00  0.05  0.00  0.05 99.90  4.30  49.5   0.1 233.2  0.96  0.75  0.98
 1981 312    33    23  10.9  13.0   1.1  0.77  0.56  0.61  0.00  0.00  0.00  0.04 -0.01  0.00  0.00  0.00  0.04  0.00  0.04 99.90 15.00  61.1   0.0 232.2  0.97  0.77  0.98
 1981 313    34    24   2.5  13.0   0.3  0.75  0.56  0.94  0.00  0.50  0.00  0.04 -0.01  0.00  0.75  0.00  0.04  0.00  0.04 99.90  3.79  59.6   0.1 229.0  0.97  0.78  0.98
 1981 314    35    25   5.6  13.1   0.6  0.73  0.57  0.82  0.00  0.00  0.00  0.04 -0.01  0.00  0.44  0.00  0.04  0.00  0.04 99.90  3.81  54.5   0.1 213.6  0.97  0.80  0.99
 1981 315    36    26   7.5  13.2   0.9  0.71  0.57  0.74  0.00  0.00  0.00  0.03 -0.01  0.00  0.25  0.00  0.03  0.00  0.03 99.90  4.11  52.3   0.1 208.6  0.97  0.82  0.99
 1981 316    37    27  10.9  13.3   1.3  0.70  0.57  0.61  0.00  0.00  0.00  0.03 -0.01  0.00  0.00  0.00  0.03  0.00  0.03 99.90  4.09  51.1   0.2 208.7  0.98  0.85  0.99
 1981 317    38    28  10.6  13.4   1.3  0.69  0.58  0.62  0.00  0.00  0.00  0.03 -0.01  0.00  0.00  0.00  0.03  0.00  0.03 99.90  4.34  50.2   0.2 208.6  0.98  0.87  0.99
 1981 318    39    29  13.0  13.5   1.7  0.68  0.58  0.52  0.00  0.00  0.00  0.02 -0.01  0.00  0.00  0.00  0.02  0.00  0.02 99.90  4.96  50.1   0.1 208.6  0.98  0.89  0.99
 1981 319    40    30  15.0  13.7   2.0  0.68  0.58  0.44  0.00  0.00  0.00  0.02 -0.01  0.00  0.00  0.00  0.02  0.00  0.02 99.90  4.36  50.4   0.1 208.6  0.99  0.91  0.99
 1981 320    41    31  17.5  13.9   2.3  0.68  0.59  0.34  0.00  0.00  0.00  0.02 -0.01  0.00  0.00  0.00  0.02  0.00  0.02 99.90  3.26  51.0   0.2 208.7  0.99  0.92  0.99
 1981 321    42    32  12.8  14.0   1.7  0.68  0.59  0.53  0.00  0.00  0.00  0.01 -0.01  0.00  0.00  0.00  0.01  0.00  0.01 99.90  3.71  51.2   0.2 208.8  0.99  0.94  1.00
 1981 322    43    33  14.1  14.1   1.9  0.67  0.59  0.47  0.00  0.00  0.00  0.01 -0.01  0.00  0.00  0.00  0.01  0.00  0.01 99.90  5.81  51.7   0.1 208.9  0.99  0.95  1.00
 1981 323    44    34   4.1  14.2   0.5  0.65  0.60  0.87  0.00  0.17  0.00  0.01 -0.01  0.00  0.59  0.00  0.01  0.00  0.01 99.90 15.00  51.7   0.0 209.1  0.99  0.95  1.00
 1981 324    45    35   0.0  14.2   0.0  0.63  0.60  1.00  0.00  1.00  0.00  0.01 -0.01  0.00  1.00  0.00  0.01  0.00  0.01 99.90  8.80  51.0   0.1 209.4  0.99  0.95  1.00
 1981 325    46    36   2.5  14.2   0.4  0.61  0.60  0.94  0.00  0.50  0.00  0.01 -0.01  0.00  0.75  0.00  0.01  0.00  0.01 99.90  5.26  50.5   0.2 209.7  0.99  0.96  1.00
 1981 326    47    37   7.0  14.3   1.1  0.59  0.61  0.76  0.00  0.00  0.00  0.01 -0.01  0.00  0.30  0.00  0.01  0.00  0.01 99.90  6.86  50.5   0.1 209.8  0.99  0.96  1.00
 1981 327    48    38  10.6  14.4   1.7  0.58  0.61  0.62  0.00  0.00  0.00  0.01 -0.01  0.00  0.00  0.00  0.01  0.00  0.01 99.90  5.16  50.9   0.2 209.7  1.00  0.97  1.00
 1981 328    49    39   6.4  14.5   1.0  0.56  0.61  0.78  0.00  0.00  0.00  0.01 -0.01  0.00  0.36  0.00  0.01  0.00  0.01 99.90  6.71  51.0   0.1 209.6  1.00  0.97  1.00
 1981 329    50    40  12.2  14.6   2.1  0.55  0.61  0.55  0.00  0.00  0.00  0.00 -0.01  0.00  0.00  0.00  0.00  0.00  0.00 99.90  5.68  51.6   0.2 209.6  1.00  0.98  1.00
 1981 330    51    41   6.7  14.7   1.1  0.53  0.62  0.77  0.00  0.00  0.00  0.00 -0.01  0.00  0.33  0.00  0.00  0.00  0.00 99.90  9.39  51.7   0.1 209.6  1.00  0.98  1.00
 1981 331    52    42  -0.8  14.7   0.0  0.51  0.62  1.00  0.00  1.00  0.00  0.00 -0.01  0.00  1.00  0.00  0.00  0.00  0.00 99.90 13.04  51.3   0.1 209.7  1.00  0.98  1.00
 1981 332    53    43   2.5  14.7   0.5  0.49  0.62  0.94  0.00  0.50  0.00  0.00 -0.01  0.00  0.75  0.00  0.00  0.00  0.00 99.90 12.53  51.1   0.1 209.8  1.00  0.98  1.00
 1981 333    54    44   3.0  14.7   0.6  0.47  0.62  0.92  0.00  0.39  0.00  0.00 -0.01  0.00  0.70  0.00  0.00  0.00  0.00 99.90 14.47  51.0   0.1 209.9  1.00  0.99  1.00
 1981 334    55    45   5.9  14.8   1.2  0.45  0.63  0.81  0.00  0.00  0.00  0.00 -0.01  0.00  0.41  0.00  0.00  0.00  0.00 99.90 15.00  70.0   0.0 209.9  1.00  0.99  1.00
 1981 335    56    46   2.2  14.8   0.4  0.43  0.63  0.95  0.00  0.56  0.00  0.00 -0.01  0.00  0.78  0.00  0.00  0.00  0.00 99.90 15.00  79.2   0.0 208.4  1.00  0.99  1.00
 1981 336    57    47   3.6  14.8   0.8  0.41  0.63  0.90  0.00  0.28  0.00  0.00 -0.01  0.00  0.64  0.00  0.00  0.00  0.00 99.90  9.23  73.0   0.1 199.9  1.00  0.99  1.00
 1981 337    58    48   4.5  14.9   1.0  0.39  0.63  0.86  0.00  0.11  0.00  0.00 -0.01  0.00  0.55  0.00  0.00  0.00  0.00 99.90  7.60  70.0   0.2 197.2  1.00  0.99  1.00
 1981 338    59    49   3.9  14.9   0.9  0.37  0.64  0.88  0.00  0.22  0.00  0.00 -0.01  0.00  0.61  0.00  0.00  0.00  0.00 99.90  8.07  68.7   0.2 197.2  1.00  0.99  1.00
 1981 339    60    50   3.9  15.0   0.9  0.35  0.64  0.88  0.00  0.22  0.00  0.00 -0.01  0.00  0.61  0.00  0.00  0.00  0.00 99.90 15.00  68.5   0.1 197.1  1.00  1.00  1.00
 1981 340    61    51   8.9  15.1   2.1  0.33  0.64  0.68  0.00  0.00  0.00  0.00 -0.01  0.00  0.11  0.00  0.00  0.00  0.00 99.90 10.50  68.5   0.1 197.1  1.00  1.00  1.00
 1981 341    62    52  11.7  15.2   2.8  0.32  0.64  0.57  0.00  0.00  0.00  0.00 -0.01  0.00  0.00  0.00  0.00  0.00  0.00 99.90  7.62  67.8   0.2 197.0  1.00  1.00  1.00
 1981 342    63    53   3.7  15.2   0.9  0.30  0.64  0.89  0.00  0.27  0.00  0.00 -0.01  0.00  0.63  0.00  0.00  0.00  0.00 99.90 10.83  66.8   0.1 196.8  1.00  1.00  1.00
 1981 343    64    54   2.2  15.3   0.6  0.28  0.64  0.95  0.00  0.55  0.00  0.00 -0.01  0.00  0.77  0.00  0.00  0.00  0.00 99.90 10.84  65.7   0.1 196.9  1.00  1.00  1.00
 1981 344    65    55  -0.3  15.3   0.0  0.26  0.65  1.00  0.00  1.00  0.00  0.00 -0.01  0.00  1.00  0.00  0.00  0.00  0.00 99.90 15.00  65.6   0.0 197.0  1.00  1.00  1.00
 1981 345    66    56   2.5  15.3   0.7  0.24  0.65  0.94  0.00  0.50  0.00  0.00 -0.01  0.00  0.75  0.00  0.00  0.00  0.00 99.90 15.00  65.6   0.0 197.0  1.00  1.00  1.00
 1981 346    67    57   2.8  15.3   0.7  0.22  0.65  0.93  0.00  0.44  0.00  0.00 -0.01  0.00  0.72  0.00  0.00  0.00  0.00 99.90 15.00  65.7   0.0 197.0  1.00  1.00  1.00
 1981 347    68    58   2.5  15.3   0.7  0.20  0.65  0.94  0.00  0.50  0.00  0.00 -0.01  0.00  0.75  0.00  0.00  0.00  0.00 99.90 15.00  65.8   0.0 197.0  1.00  1.00  1.00
 1981 348    69    59   0.5  15.3   0.2  0.18  0.65  1.00  0.00  0.89  0.00  0.00 -0.01  0.00  0.94  0.00  0.00  0.00  0.00 99.90 15.00  65.7   0.1 197.0  1.00  1.00  1.00
 1981 349    70    60   0.0  15.3   0.0  0.16  0.65  1.00  0.00  1.00  0.00  0.00 -0.01  0.00  1.00  0.00  0.00  0.00  0.00 99.90 15.00  65.4   0.0 197.0  1.00  1.00  1.00
 1981 350    71    61  -4.7  15.3   0.0  0.16  0.65  1.00  0.00  1.00  0.00  0.00 -0.01  0.00  1.00  0.00  0.00  0.00  0.00 99.90 15.00  65.4   0.0 197.0  1.00  1.00  1.00
 1981 351    72    62 -12.5  15.3   0.0  0.14  0.65  1.00  0.00  1.00  0.00  0.00 -0.01  0.00  1.00  0.00  0.00  0.00  0.00 99.90 15.00  65.3   0.0 197.0  1.00  1.00  1.00
 1981 352    73    63 -13.6  15.3   0.0  0.12  0.65  1.00  0.00  1.00  0.00  0.00 -0.01  0.00  1.00  0.00  0.00  0.00  0.00 99.90 15.00  65.3   0.0 197.0  1.00  1.00  1.00
 1981 353    74    64 -11.4  15.3   0.0  0.10  0.65  1.00  0.00  1.00  0.00  0.00 -0.01  0.00  1.00  0.00  0.00  0.00  0.00 99.90 15.00  65.2   0.0 197.0  1.00  1.00  1.00
 1981 354    75    65  -4.2  15.3   0.0  0.08  0.65  1.00  0.00  1.00  0.00  0.00 -0.01  0.00  1.00  0.00  0.00  0.00  0.00 99.90 15.00  67.8   0.0 197.0  1.00  1.00  1.00
 1981 355    76    66   2.0  15.4   0.6  0.06  0.65  0.96  0.00  0.61  0.00  0.00 -0.01  0.00  0.81  0.00  0.00  0.00  0.00 99.90 15.00  69.9   0.0 197.0  1.00  1.00  1.00
 1981 356    77    67   1.7  15.4   0.6  0.04  0.65  0.97  0.00  0.66  0.00  0.00 -0.01  0.00  0.83  0.00  0.00  0.00  0.00 99.90 15.00  70.0   0.0 197.0  1.00  1.00  1.00
 1981 357    78    68  -1.1  15.4   0.0  0.02  0.65  1.00  0.00  1.00  0.00  0.00 -0.01  0.00  1.00  0.00  0.00  0.00  0.00 99.90 15.00  68.7   0.0 197.0  1.00  1.00  1.00
 1981 358    79    69  -0.3  15.4   0.0  0.00  0.65  1.00  0.00  1.00  0.00  0.00 -0.01  0.00  1.00  0.00  0.00  0.00  0.00 99.90 15.00  67.3   0.0 197.0  1.00  1.00  1.00
 1981 359    80    70   1.6  15.4   0.6  0.00  0.65  0.97  0.00  0.67  0.00  0.00 -0.01  0.00  0.84  0.00  0.00  0.00  0.00 99.90 15.00  66.5   0.0 197.0  1.00  1.00  1.00
 1981 360    81    71  -1.7  15.4   0.0  0.00  0.65  1.00  0.00  1.00  0.00  0.00 -0.01  0.00  1.00  0.00  0.00  0.00  0.00 99.90 15.00  65.9   0.0 197.0  1.00  1.00  1.00
 1981 361    82    72  -3.1  15.4   0.0  0.00  0.65  1.00  0.00  1.00  0.00  0.00 -0.01  0.00  1.00  0.00  0.00  0.00  0.00 99.90 15.00  65.8   0.0 197.0  1.00  1.00  1.00
 1981 362    83    73  -4.4  15.4   0.0  0.00  0.65  1.00  0.00  1.00  0.00  0.00 -0.01  0.00  1.00  0.00  0.00  0.00  0.00 99.90 15.00  65.5   0.0 197.0  1.00  1.00  1.00
 1981 363    84    74  -3.6  15.4   0.0  0.00  0.65  1.00  0.00  1.00  0.00  0.00 -0.01  0.00  1.00  0.00  0.00  0.00  0.00 99.90 15.00  64.9   0.0 197.0  1.00  1.00  1.00
 1981 364    85    75   1.7  15.4   0.6  0.00  0.65  0.97  0.00  0.66  0.00  0.00 -0.01  0.00  0.83  0.00  0.00  0.00  0.00 99.90 15.00  64.2   0.0 197.0  1.00  1.00  1.00
 1981 365    86    76   0.0  15.4   0.0  0.00  0.65  1.00  0.00  1.00  0.00  0.00 -0.01  0.00  1.00  0.00  0.00  0.00  0.00 99.90 15.00  63.4   0.0 197.0  1.00  1.00  1.00
 1982   1    87    77  -6.1  15.4   0.0  0.00  0.65  1.00  0.00  1.00  0.00  0.00 -0.01  0.00  1.00  0.00  0.00  0.00  0.00 99.90 15.00  63.3   0.0 197.0  1.00  1.00  1.00
 1982   2    88    78   0.8  15.4   0.3  0.00  0.65  1.00  0.00  0.83  0.00  0.00 -0.01  0.00  0.92  0.00  0.00  0.00  0.00 99.90 15.00  65.3   0.0 196.9  1.00  1.00  1.00
 1982   3    89    79  -6.3  15.4   0.0  0.00  0.65  1.00  0.00  1.00  0.00  0.00 -0.01  0.00  1.00  0.00  0.00  0.00  0.00 99.90 15.00  65.3   0.0 197.0  1.00  1.00  1.00
 1982   4    90    80  -6.1  15.4   0.0  0.00  0.64  1.00  0.00  1.00  0.00  0.00 -0.01  0.00  1.00  0.00  0.00  0.00  0.00 99.90 15.00  70.2   0.0 196.9  1.00  1.00  1.00
 1982   5    91    81  -1.6  15.4   0.0  0.00  0.64  1.00  0.00  1.00  0.00  0.00 -0.01  0.00  1.00  0.00  0.00  0.00  0.00 99.90 15.00  68.9   0.0 196.9  1.00  1.00  1.00
 1982   6    92    82 -10.9  15.4   0.0  0.00  0.64  1.00  0.00  1.00  0.00  0.00 -0.01  0.00  1.00  0.00  0.00  0.00  0.00 99.90 15.00  68.8   0.0 196.9  1.00  1.00  1.00
 1982   7    93    83 -11.4  15.4   0.0  0.00  0.64  1.00  0.00  1.00  0.00  0.00 -0.01  0.00  1.00  0.00  0.00  0.00  0.00 99.90 15.00  68.7   0.0 196.9  1.00  1.00  1.00
 1982   8    94    84  -2.8  15.4   0.0  0.00  0.64  1.00  0.00  1.00  0.00  0.00 -0.01  0.00  1.00  0.00  0.00  0.00  0.00 99.90 15.00  67.7   0.0 196.9  1.00  1.00  1.00
 1982   9    95    85  -8.4  15.4   0.0  0.00  0.64  1.00  0.00  1.00  0.00  0.00 -0.01  0.00  1.00  0.00  0.00  0.00  0.00 99.90 15.00  67.6   0.0 196.9  1.00  1.00  1.00
 1982  10    96    86 -18.6  15.4   0.0  0.00  0.63  1.00  0.00  1.00  0.00  0.00 -0.01  0.00  1.00  0.00  0.00  0.00  0.00 99.90 15.00  67.6   0.0 196.9  1.00  1.00  1.00
 1982  11    97    87 -13.4  15.4   0.0  0.00  0.63  1.00  0.00  1.00  0.00  0.00 -0.01  0.00  1.00  0.00  0.00  0.00  0.00 99.90 15.00  67.5   0.0 196.9  1.00  1.00  1.00
 1982  12    98    88  -9.1  15.4   0.0  0.00  0.63  1.00  0.00  1.00  0.00  0.00 -0.01  0.00  1.00  0.00  0.00  0.00  0.00 99.90 15.00  67.5   0.0 196.9  1.00  1.00  1.00
 1982  13    99    89 -14.5  15.4   0.0  0.00  0.63  1.00  0.00  1.00  0.00  0.00 -0.01  0.00  1.00  0.00  0.00  0.00  0.00 99.90 15.00  67.4   0.0 196.9  1.00  1.00  1.00
 1982  14   100    90  -3.0  15.4   0.0  0.00  0.63  1.00  0.00  1.00  0.00  0.00 -0.01  0.00  1.00  0.00  0.00  0.00  0.00 99.90 15.00  68.9   0.0 196.9  1.00  1.00  1.00
 1982  15   101    91  -1.4  15.4   0.0  0.00  0.62  1.00  0.00  1.00  0.00  0.00 -0.01  0.00  1.00  0.00  0.00  0.00  0.00 99.90 15.00  68.1   0.0 196.9  1.00  1.00  1.00
 1982  16   102    92 -14.1  15.4   0.0  0.00  0.62  1.00  0.00  1.00  0.00  0.00 -0.01  0.00  1.00  0.00  0.00  0.00  0.00 99.90 15.00  68.0   0.0 196.9  1.00  1.00  1.00
 1982  17   103    93  -8.7  15.4   0.0  0.00  0.62  1.00  0.00  1.00  0.00  0.00 -0.01  0.00  1.00  0.00  0.00  0.00  0.00 99.90 15.00  67.8   0.0 196.9  1.00  1.00  1.00
 1982  18   104    94   0.3  15.4   0.1  0.00  0.62  1.00  0.00  0.94  0.00  0.00 -0.01  0.00  0.97  0.00  0.00  0.00  0.00 99.90 15.00  66.5   0.0 196.9  1.00  1.00  1.00
 1982  19   105    95  -0.6  15.4   0.0  0.00  0.61  1.00  0.00  1.00  0.00  0.00 -0.01  0.00  1.00  0.00  0.00  0.00  0.00 99.90 15.00  65.5   0.0 196.9  1.00  1.00  1.00
 1982  20   106    96  -3.3  15.4   0.0  0.00  0.61  1.00  0.00  1.00  0.00  0.00 -0.01  0.00  1.00  0.00  0.00  0.00  0.00 99.90 15.00  65.4   0.0 196.9  1.00  1.00  1.00
 1982  21   107    97  -5.0  15.4   0.0  0.00  0.61  1.00  0.00  1.00  0.00  0.00 -0.01  0.00  1.00  0.00  0.00  0.00  0.00 99.90 15.00  65.4   0.0 196.9  1.00  1.00  1.00
 1982  22   108    98  -2.2  15.4   0.0  0.00  0.60  1.00  0.00  1.00  0.00  0.00 -0.01  0.00  1.00  0.00  0.00  0.00  0.00 99.90 15.00  67.0   0.0 196.9  1.00  1.00  1.00
 1982  23   109    99 -10.9  15.4   0.0  0.00  0.60  1.00  0.00  1.00  0.00  0.00 -0.01  0.00  1.00  0.00  0.00  0.00  0.00 99.90 15.00  66.9   0.0 196.9  1.00  1.00  1.00
 1982  24   110   100  -7.5  15.4   0.0  0.00  0.60  1.00  0.00  1.00  0.00  0.00 -0.01  0.00  1.00  0.00  0.00  0.00  0.00 99.90 15.00  66.6   0.0 196.9  1.00  1.00  1.00
 1982  25   111   101  -1.1  15.4   0.0  0.00  0.59  1.00  0.00  1.00  0.00  0.00 -0.01  0.00  1.00  0.00  0.00  0.00  0.00 99.90 15.00  71.1   0.0 196.9  1.00  1.00  1.00
 1982  26   112   102   1.4  15.4   0.6  0.00  0.59  0.98  0.00  0.72  0.00  0.00 -0.01  0.00  0.86  0.00  0.00  0.00  0.00 99.90 15.00  75.4   0.0 196.9  1.00  1.00  1.00
 1982  27   113   103   8.1  15.5   3.3  0.00  0.59  0.72  0.00  0.00  0.00  0.00 -0.01  0.00  0.19  0.00  0.00  0.00  0.00 99.90 15.00  74.3   0.0 196.9  1.00  1.00  1.00
 1982  28   114   104   0.0  15.5   0.0  0.00  0.58  1.00  0.00  1.00  0.00  0.00 -0.01  0.00  1.00  0.00  0.00  0.00  0.00 99.90 15.00  72.9   0.0 196.9  1.00  1.00  1.00
 1982  29   115   105   5.2  15.6   2.2  0.00  0.58  0.83  0.00  0.00  0.00  0.00 -0.01  0.00  0.48  0.00  0.00  0.00  0.00 99.90 15.00  73.3   0.0 196.8  1.00  1.00  1.00
 1982  30   116   106   0.0  15.6   0.0  0.00  0.58  1.00  0.00  1.00  0.00  0.00 -0.01  0.00  1.00  0.00  0.00  0.00  0.00 99.90 15.00  77.9   0.0 196.9  1.00  1.00  1.00
 1982  31   117   107  -7.2  15.6   0.0  0.00  0.57  1.00  0.00  1.00  0.00  0.00 -0.01  0.00  1.00  0.00  0.00  0.00  0.00 99.90 15.00  77.7   0.0 196.9  1.00  1.00  1.00
 1982  32   118   108  -1.9  15.6   0.0  0.00  0.57  1.00  0.00  1.00  0.00  0.00 -0.01  0.00  1.00  0.00  0.00  0.00  0.00 99.90 15.00  77.2   0.0 196.8  1.00  1.00  1.00
 1982  33   119   109  -3.9  15.6   0.0  0.00  0.57  1.00  0.00  1.00  0.00  0.00 -0.01  0.00  1.00  0.00  0.00  0.00  0.00 99.90 15.00  77.0   0.0 196.8  1.00  1.00  1.00
 1982  34   120   110 -13.0  15.6   0.0  0.00  0.56  1.00  0.00  1.00  0.00  0.00 -0.01  0.00  1.00  0.00  0.00  0.00  0.00 99.90 15.00  77.0   0.0 196.8  1.00  1.00  1.00
 1982  35   121   111 -17.0  15.6   0.0  0.00  0.56  1.00  0.00  1.00  0.00  0.00 -0.01  0.00  1.00  0.00  0.00  0.00  0.00 99.90 15.00  76.9   0.0 196.8  1.00  1.00  1.00
 1982  36   122   112 -15.5  15.6   0.0  0.00  0.56  1.00  0.00  1.00  0.00  0.00 -0.01  0.00  1.00  0.00  0.00  0.00  0.00 99.90 15.00  76.9   0.0 196.8  1.00  1.00  1.00
 1982  37   123   113 -13.8  15.6   0.0  0.00  0.55  1.00  0.00  1.00  0.00  0.00 -0.01  0.00  1.00  0.00  0.00  0.00  0.00 99.90 15.00  76.7   0.0 196.8  1.00  1.00  1.00
 1982  38   124   114  -6.4  15.6   0.0  0.00  0.55  1.00  0.00  1.00  0.00  0.00 -0.01  0.00  1.00  0.00  0.00  0.00  0.00 99.90 15.00  78.1   0.0 196.8  1.00  1.00  1.00
 1982  39   125   115  -8.1  15.6   0.0  0.00  0.54  1.00  0.00  1.00  0.00  0.00 -0.01  0.00  1.00  0.00  0.00  0.00  0.00 99.90 15.00  78.0   0.0 196.8  1.00  1.00  1.00
 1982  40   126   116 -14.4  15.6   0.0  0.00  0.54  1.00  0.00  1.00  0.00  0.00 -0.01  0.00  1.00  0.00  0.00  0.00  0.00 99.90 15.00  78.0   0.0 196.8  1.00  1.00  1.00
 1982  41   127   117 -11.6  15.6   0.0  0.00  0.54  1.00  0.00  1.00  0.00  0.00 -0.01  0.00  1.00  0.00  0.00  0.00  0.00 99.90 15.00  77.8   0.0 196.8  1.00  1.00  1.00
 1982  42   128   118  -8.9  15.6   0.0  0.00  0.53  1.00  0.00  1.00  0.00  0.00 -0.01  0.00  1.00  0.00  0.00  0.00  0.00 99.90 15.00  77.5   0.0 196.8  1.00  1.00  1.00
 1982  43   129   119  -2.2  15.6   0.0  0.00  0.53  1.00  0.00  1.00  0.00  0.00 -0.01  0.00  1.00  0.00  0.00  0.00  0.00 99.90 15.00  87.1   0.0 194.9  1.00  1.00  1.00
 1982  44   130   120  -4.1  15.6   0.0  0.00  0.52  1.00  0.00  1.00  0.00  0.00 -0.01  0.00  1.00  0.00  0.00  0.00  0.00 99.90 15.00  85.8   0.0 192.4  1.00  1.00  1.00
 1982  45   131   121   2.8  15.6   1.3  0.00  0.52  0.93  0.00  0.44  0.00  0.00 -0.01  0.00  0.72  0.00  0.00  0.00  0.00 99.90 15.00  85.3   0.0 189.3  1.00  1.00  1.00
 1982  46   132   122   4.7  15.7   2.3  0.00  0.52  0.85  0.00  0.06  0.00  0.00 -0.01  0.00  0.53  0.00  0.00  0.00  0.00 99.90 15.00  80.0   0.0 177.3  1.00  1.00  1.00
 1982  47   133   123   3.6  15.7   1.8  0.00  0.51  0.90  0.00  0.28  0.00  0.00 -0.01  0.00  0.64  0.00  0.00  0.00  0.00 99.90 15.00  79.2   0.0 175.9  1.00  1.00  1.00
 1982  48   134   124   2.5  15.7   1.2  0.00  0.51  0.94  0.00  0.50  0.00  0.00 -0.01  0.00  0.75  0.00  0.00  0.00  0.00 99.90 15.00  78.2   0.0 174.5  1.00  1.00  1.00
 1982  49   135   125   7.0  15.8   3.5  0.00  0.50  0.76  0.00  0.00  0.00  0.00 -0.01  0.00  0.30  0.00  0.00  0.00  0.00 99.90 15.00  80.9   0.0 173.2  1.00  1.00  1.00
 1982  50   136   126   8.9  21.0   4.5  0.00  0.50  0.68  0.00  0.00  0.00  0.00 -0.01  0.00  0.11  0.00  0.00  0.00  0.00 99.90 15.00  77.9   0.0 171.8  1.00  1.00  1.00
 1982  51   137   127  11.1  21.1   5.6  0.00  0.49  0.60  0.00  0.00  0.00  0.00 -0.01  0.00  0.00  0.00  0.00  0.00  0.00 99.90 15.00  77.0   0.0 171.9  1.00  1.00  1.00
 1982  52   138   128  10.0  21.2   5.1  0.00  0.49  0.64  0.00  0.00  0.00  0.00 -0.01  0.00  0.00  0.00  0.00  0.00  0.00 99.90 15.00  75.7   0.0 171.9  1.00  1.00  1.00
 1982  53   139   129  12.2  21.3   6.3  0.00  0.49  0.55  0.00  0.00  0.00  0.00 -0.01  0.00  0.00  0.00  0.00  0.00  0.00 99.90 15.00  75.2   0.0 172.0  1.00  1.00  1.00
 1982  54   140   130   9.4  21.4   4.9  0.00  0.48  0.66  0.00  0.00  0.00  0.00 -0.01  0.00  0.06  0.00  0.00  0.00  0.00 99.90 15.00  75.4   0.0 172.2  1.00  1.00  1.00
 1982  55   141   131   3.3  21.4   1.7  0.00  0.48  0.91  0.00  0.33  0.00  0.00 -0.01  0.00  0.67  0.00  0.00  0.00  0.00 99.90 15.00  74.5   0.0 172.4  1.00  1.00  1.00
 1982  56   142   132  -1.4  21.4   0.0  0.00  0.47  1.00  0.00  1.00  0.00  0.00 -0.01  0.00  1.00  0.00  0.00  0.00  0.00 99.90 15.00  73.7   0.0 172.5  1.00  1.00  1.00
 1982  57   143   133  -2.0  21.4   0.0  0.00  0.47  1.00  0.00  1.00  0.00  0.00 -0.01  0.00  1.00  0.00  0.00  0.00  0.00 99.90 15.00  72.9   0.0 172.5  1.00  1.00  1.00
 1982  58   144   134   1.7  21.4   0.9  0.00  0.46  0.97  0.00  0.67  0.00  0.00 -0.01  0.00  0.83  0.00  0.00  0.00  0.00 99.90 15.00  72.3   0.0 172.5  1.00  1.00  1.00
 1982  59   145   135   4.7  21.5   2.5  0.00  0.46  0.85  0.00  0.06  0.00  0.00 -0.01  0.00  0.53  0.00  0.00  0.00  0.00 99.90 15.00  71.9   0.0 172.5  1.00  1.00  1.00
 1982  60   146   136   8.4  21.5   4.5  0.00  0.46  0.71  0.00  0.00  0.00  0.00 -0.01  0.00  0.16  0.00  0.00  0.00  0.00 99.90 15.00  71.6   0.0 172.5  1.00  1.00  1.00
 1982  61   147   137   8.7  21.6   4.7  0.00  0.45  0.69  0.00  0.00  0.00  0.00 -0.01  0.00  0.13  0.00  0.00  0.00  0.00 99.90 15.00  71.5   0.0 172.5  1.00  1.00  1.00
 1982  62   148   138  -0.2  21.6   0.0  0.00  0.45  1.00  0.00  1.00  0.00  0.00 -0.01  0.00  1.00  0.00  0.00  0.00  0.00 99.90 15.00  71.4   0.0 172.5  1.00  1.00  1.00
 1982  63   149   139  -3.7  21.6   0.0  0.00  0.44  1.00  0.00  1.00  0.00  0.00 -0.01  0.00  1.00  0.00  0.00  0.00  0.00 99.90 15.00  71.3   0.0 172.5  1.00  1.00  1.00
 1982  64   150   140  -4.2  21.6   0.0  0.00  0.44  1.00  0.00  1.00  0.00  0.00 -0.01  0.00  1.00  0.00  0.00  0.00  0.00 99.90 15.00  71.0   0.0 172.5  1.00  1.00  1.00
 1982  65   151   141  -3.0  21.6   0.0  0.00  0.43  1.00  0.00  1.00  0.00  0.00 -0.01  0.00  1.00  0.00  0.00  0.00  0.00 99.90 15.00  70.5   0.0 172.5  1.00  1.00  1.00
 1982  66   152   142  -3.0  21.6   0.0  0.00  0.43  1.00  0.00  1.00  0.00  0.00 -0.01  0.00  1.00  0.00  0.00  0.00  0.00 99.90 15.00  69.9   0.0 172.5  1.00  1.00  1.00
 1982  67   153   143   2.5  21.6   1.4  0.00  0.43  0.94  0.00  0.50  0.00  0.00 -0.01  0.00  0.75  0.00  0.00  0.00  0.00 99.90 15.00  69.6   0.0 172.5  1.00  1.00  1.00
 1982  68   154   144   1.4  21.7   0.8  0.00  0.42  0.98  0.00  0.72  0.00  0.00 -0.01  0.00  0.86  0.00  0.00  0.00  0.00 99.90 15.00  69.1   0.0 172.5  1.00  1.00  1.00
 1982  69   155   145  11.1  21.7   6.5  0.00  0.42  0.60  0.00  0.00  0.00  0.00 -0.01  0.00  0.00  0.00  0.00  0.00  0.00 99.90 15.00  69.2   0.0 172.5  1.00  1.00  1.00
 1982  70   156   146  10.0  21.8   5.9  0.00  0.41  0.64  0.00  0.00  0.00  0.00 -0.01  0.00  0.00  0.00  0.00  0.00  0.00 99.90 15.00  69.2   0.0 172.5  1.00  1.00  1.00
 1982  71   157   147  12.8  21.9   7.6  0.00  0.41  0.53  0.00  0.00  0.00  0.00 -0.01  0.00  0.00  0.00  0.00  0.00  0.00 99.90 15.00  69.4   0.0 172.5  1.00  1.00  1.00
 1982  72   158   148   8.0  22.0   4.8  0.00  0.40  0.72  0.00  0.00  0.00  0.00 -0.01  0.00  0.20  0.00  0.00  0.00  0.00 99.90 15.00  69.4   0.1 172.5  1.00  1.00  1.00
 1982  73   159   149   7.8  22.1   4.7  0.00  0.40  0.73  0.00  0.00  0.00  0.00 -0.01  0.00  0.22  0.00  0.00  0.00  0.00 99.90 15.00  70.0   0.0 172.6  1.00  1.00  1.00
 1982  74   160   150  10.0  22.2   6.1  0.00  0.39  0.64  0.00  0.00  0.00  0.00 -0.01  0.00  0.00  0.00  0.00  0.00  0.00 99.90 15.00  91.3   0.0 172.8  1.00  1.00  1.00
 1982  75   161   151  13.0  22.3   8.0  0.00  0.39  0.52  0.00  0.00  0.00  0.00 -0.01  0.00  0.00  0.00  0.00  0.00  0.00 99.90 15.00  96.0   0.1 171.1  1.00  1.00  1.00
 1982  76   162   152  13.9  22.4   8.5  0.00  0.39  0.48  0.00  0.00  0.00  0.00 -0.01  0.00  0.00  0.00  0.00  0.00  0.00 99.90 14.61  87.8   0.1 160.4  1.00  1.00  1.00
 1982  77   163   153   9.8  22.5   6.0  0.00  0.38  0.65  0.00  0.00  0.00  0.00 -0.01  0.00  0.02  0.00  0.00  0.00  0.00 99.90 15.00  86.1   0.0 158.5  1.00  1.00  1.00
 1982  78   164   154  16.1  22.7  10.0  0.00  0.38  0.40  0.00  0.00  0.00  0.00 -0.01  0.00  0.00  0.00  0.00  0.00  0.00 99.90 11.63  97.0   0.2 157.6  1.00  1.00  1.00
 1982  79   165   155   8.3  22.8   5.2  0.00  0.37  0.71  0.00  0.00  0.00  0.00 -0.01  0.00  0.17  0.00  0.00  0.00  0.00 99.90  8.83  89.4   0.2 151.0  1.00  1.00  1.00
 1982  80   166   156   2.5  22.8   1.6  0.00  0.37  0.94  0.00  0.50  0.00  0.00 -0.01  0.00  0.75  0.00  0.00  0.00  0.00 99.90  9.16  85.5   0.2 149.7  1.00  1.00  1.00
 1982  81   167   157   3.9  22.9   2.5  0.00  0.36  0.88  0.00  0.22  0.00  0.00 -0.01  0.00  0.61  0.00  0.00  0.00  0.00 99.90  7.41  84.0   0.2 149.9  1.00  1.00  1.00
 1982  82   168   158   7.8  23.0   5.0  0.00  0.36  0.73  0.00  0.00  0.00  0.00 -0.01  0.00  0.22  0.00  0.00  0.00  0.00 99.90 12.53  83.2   0.1 149.9  1.00  1.00  1.00
 1982  83   169   159   6.6  23.1   4.3  0.00  0.36  0.77  0.00  0.00  0.00  0.00 -0.01  0.00  0.34  0.00  0.00  0.00  0.00 99.90  7.31  82.4   0.3 150.0  1.00  1.00  1.00
 1982  84   170   160   3.9  23.1   2.5  0.00  0.35  0.89  0.00  0.23  0.00  0.00 -0.01  0.00  0.62  0.00  0.00  0.00  0.00 99.90  5.95  84.3   0.3 149.8  1.00  1.00  1.00
 1982  85   171   161   3.0  23.2   2.0  0.00  0.35  0.92  0.00  0.39  0.00  0.00 -0.01  0.00  0.69  0.00  0.00  0.00  0.00 99.90  6.50  83.0   0.3 149.6  1.00  1.00  1.00
 1982  86   172   162   5.6  23.2   3.6  0.00  0.34  0.82  0.00  0.00  0.00  0.00 -0.01  0.00  0.44  0.00  0.00  0.00  0.00 99.90  7.66  82.1   0.3 149.4  1.00  1.00  1.00
 1982  87   173   163   6.9  23.3   4.6  0.00  0.34  0.76  0.00  0.00  0.00  0.00 -0.01  0.00  0.31  0.00  0.00  0.00  0.00 99.90  9.68  81.4   0.2 149.0  1.00  1.00  1.00
 1982  88   174   164  10.3  23.5   6.8  0.00  0.34  0.63  0.00  0.00  0.00  0.00 -0.01  0.00  0.00  0.00  0.00  0.00  0.00 99.90 12.12  81.0   0.2 148.5  1.00  1.00  1.00
 1982  89   175   165  15.0  23.6  10.0  0.00  0.33  0.44  0.00  0.00  0.00  0.00 -0.01  0.00  0.00  0.00  0.00  0.00  0.00 99.90  3.92  81.4   0.6 147.4  0.93  0.94  0.99
 1982  90   176   166  10.9  23.8   7.3  0.00  0.33  0.61  0.00  0.00  0.00  0.08 -0.01  0.00  0.00  0.00  0.08  0.00  0.08 99.02  3.17  80.5   0.8 146.4  0.93  0.95  0.98
 1982  91   177   167  13.9  23.9   9.4  0.00  0.32  0.48  0.00  0.00  0.00  0.08 -0.01  0.00  0.00  0.00  0.08  0.00  0.08 85.41  2.85  79.6   0.9 145.5  0.91  0.92  0.96
 1982  92   178   168  17.0  24.1  11.5  0.00  0.32  0.36  0.00  0.00  0.00  0.11 -0.01  0.00  0.00  0.00  0.11  0.00  0.11 89.06  3.18  78.9   0.9 144.5  0.87  0.89  0.95
 1982  93   179   169   7.5  24.2   5.1  0.00  0.32  0.74  0.00  0.00  0.00  0.14 -0.01  0.00  0.25  0.00  0.14  0.00  0.14 72.23  2.77  77.6   1.1 143.6  0.89  0.91  0.96
 1982  94   180   170   5.2  24.3   3.6  0.00  0.31  0.83  0.00  0.00  0.00  0.13 -0.01  0.00  0.48  0.00  0.13  0.00  0.13 95.88  4.04  76.6   0.8 143.0  0.90  0.93  0.96
 1982  95   181   171   3.6  24.3   2.5  0.00  0.31  0.90  0.00  0.28  0.00  0.12 -0.01  0.00  0.64  0.00  0.12  0.00  0.12 99.90  8.95  82.0   0.4 142.6  0.91  0.94  0.97
 1982  96   182   172  -0.8  24.3   0.0  0.00  0.30  1.00  0.00  1.00  0.00  0.11 -0.01  0.00  1.00  0.00  0.11  0.00  0.11 99.90  6.03  80.4   0.6 142.5  0.91  0.94  0.97
 1982  97   183   173   3.0  24.3   2.1  0.00  0.30  0.92  0.00  0.39  0.00  0.10 -0.01  0.00  0.69  0.00  0.10  0.00  0.10 99.90 15.00  79.8   0.2 142.5  0.92  0.95  0.97
 1982  98   184   174   4.4  24.4   3.1  0.00  0.30  0.86  0.00  0.12  0.00  0.10 -0.01  0.00  0.56  0.00  0.10  0.00  0.10 99.90  7.71  79.1   0.5 142.3  0.92  0.96  0.97
 1982  99   185   175   4.1  24.4   2.9  0.00  0.29  0.87  0.00  0.17  0.00  0.09 -0.01  0.00  0.59  0.00  0.09  0.00  0.09 66.72  3.53  77.3   1.2 141.9  0.93  0.97  0.98
 1982 100   186   176   8.7  24.5   6.2  0.00  0.29  0.69  0.00  0.00  0.00  0.08 -0.01  0.00  0.13  0.00  0.08  0.00  0.08 60.00  3.47  75.8   1.3 141.5  0.94  0.98  0.98
 1982 101   187   177  13.6  24.7   9.7  0.00  0.28  0.50  0.00  0.00  0.00  0.07 -0.01  0.00  0.00  0.00  0.07  0.00  0.07 51.88  3.30  74.4   1.4 140.3  0.92  0.96  0.97
 1982 102   188   178  20.2  24.9  14.6  0.00  0.28  0.23  0.00  0.00  0.00  0.09 -0.01  0.00  0.02  0.00  0.09  0.00  0.09 38.31  2.48  72.9   1.9 138.9  0.88  0.91  0.95
 1982 103   189   179  16.1  25.1  11.7  0.00  0.28  0.40  0.00  0.00  0.00  0.14 -0.01  0.00  0.00  0.00  0.14  0.00  0.14 37.09  2.58  71.2   1.9 137.7  0.86  0.90  0.94
 1982 104   190   180  21.1  25.3  15.4  0.00  0.27  0.19  0.00  0.00  0.00  0.16 -0.01  0.00  0.08  0.00  0.16  0.00  0.16 30.41  2.31  69.4   2.3 136.5  0.83  0.87  0.93
 1982 105   191   181  24.2  25.6  17.7  0.00  0.27  0.07  0.00  0.00  0.00  0.19 -0.01  0.00  0.28  0.00  0.19  0.00  0.19 36.91  3.05  68.1   1.8 135.4  0.82  0.87  0.92
 1982 106   192   182  18.4  25.8  13.5  0.00  0.27  0.31  0.00  0.00  0.00  0.21 -0.01  0.00  0.00  0.00  0.21  0.00  0.21 82.00  7.15  67.7   0.8 134.4  0.81  0.88  0.92
 1982 107   193   183  10.0  25.9   7.4  0.00  0.26  0.64  0.00  0.00  0.00  0.22 -0.01  0.00  0.00  0.00  0.22  0.00  0.22 28.31  2.60  65.7   2.3 133.4  0.82  0.90  0.91
 1982 108   194   184  12.2  26.0   9.0  0.00  0.26  0.55  0.00  0.00  0.00  0.21 -0.01  0.00  0.00  0.00  0.21  0.00  0.21 26.59  2.71  63.7   2.4 132.4  0.82  0.90  0.90
 1982 109   195   185  15.3  26.1  11.4  0.00  0.25  0.43  0.00  0.00  0.00  0.20 -0.01  0.00  0.00  0.00  0.20  0.00  0.20 25.43  2.42  63.5   2.5 131.3  0.82  0.89  0.89
 1982 110   196   186   6.7  26.1   6.6  0.00  0.00  0.77  0.00  0.00  0.00  0.21 -0.01  0.00  0.33  0.00  0.21  0.00  0.21 27.63  2.81  61.1   2.2 130.3  0.83  0.90  0.91
 1982 111   197   187   7.0  26.1   7.0  0.00  0.00  0.76  0.00  0.00  0.00  0.19 -0.01  0.00  0.30  0.00  0.19  0.00  0.19 28.12  3.03  58.8   2.1 129.3  0.85  0.91  0.92
 1982 112   198   188   8.6  26.1   8.6  0.00  0.00  0.70  0.00  0.00  0.00  0.17 -0.01  0.00  0.14  0.00  0.17  0.00  0.17 21.78  2.53  56.2   2.6 128.2  0.86  0.92  0.91
 1982 113   199   189  11.7  26.1  11.7  0.00  0.00  0.57  0.00  0.00  0.00  0.16 -0.01  0.00  0.00  0.00  0.16  0.00  0.16 22.11  2.79  54.1   2.4 127.1  0.86  0.89  0.90
 1982 114   200   190  16.4  26.1  16.4  0.00  0.00  0.38  0.00  0.00  0.00  0.16 -0.01  0.00  0.00  0.00  0.16  0.00  0.16 21.98  2.50  52.4   2.4 126.0  0.84  0.85  0.90
 1982 115   201   191  13.1  26.1  13.1  0.00  0.00  0.52  0.00  0.00  0.00  0.18 -0.01  0.00  0.00  0.00  0.18  0.00  0.18 36.90  3.65  51.6   1.4 124.9  0.84  0.83  0.90
 1982 116   202   192  14.1  30.5  14.1  0.00  0.00  0.47  0.00  0.00  0.00  0.18 -0.01  0.00  0.00  0.00  0.18  0.00  0.18 15.67  1.57  49.1   3.1 124.0  0.83  0.79  0.89
 1982 117   203   193  10.6  31.0  10.6  0.00  0.00  0.62  0.00  0.00  0.00  0.20 -0.01  0.00  0.00  0.00  0.20  0.00  0.20 56.34  5.44  48.7   0.9 123.1  0.84  0.79  0.89
 1982 118   204   194   8.4  31.4   8.4  0.00  0.00  0.71  0.00  0.00  0.00  0.19 -0.01  0.00  0.16  0.00  0.19  0.00  0.19 99.90 15.00  51.5   0.2 122.3  0.85  0.80  0.90
 1982 119   205   195  10.0  31.9  10.0  0.00  0.00  0.64  0.00  0.00  0.00  0.18 -0.01  0.00  0.00  0.00  0.18  0.00  0.18 85.43  7.91  66.8   0.8 121.5  0.85  0.80  0.90
 1982 120   206   196  13.9  32.5  13.9  0.00  0.00  0.48  0.00  0.00  0.00  0.18 -0.01  0.00  0.00  0.00  0.18  0.00  0.18 48.29  6.69  65.7   1.4 120.9  0.87  0.82  0.90
 1982 121   207   197  16.1  33.3  16.1  0.00  0.00  0.39  0.00  0.00  0.00  0.15 -0.01  0.00  0.00  0.00  0.15  0.00  0.15 33.39  4.93  63.6   1.9 119.3  0.88  0.82  0.90
 1982 122   208   198  18.0  34.1  18.0  0.00  0.00  0.32  0.00  0.00  0.00  0.14 -0.01  0.00  0.00  0.00  0.14  0.00  0.14 23.65  3.78  60.8   2.6 117.9  0.88  0.80  0.90
 1982 123   209   199  22.0  35.2  22.0  0.00  0.00  0.16  0.00  0.00  0.00  0.14 -0.01  0.00  0.13  0.00  0.14  0.00  0.14 17.82  3.10  57.3   3.2 116.9  0.87  0.77  0.89
 1982 124   210   200  24.5  36.3  24.5  0.00  0.00  0.06  0.00  0.00  0.00  0.15 -0.01  0.00  0.30  0.00  0.15  0.00  0.15 13.35  2.39  53.2   4.0 116.1  0.88  0.74  0.89
 1982 125   211   201  18.0  37.1  18.0  0.00  0.00  0.32  0.00  0.00  0.00  0.14 -0.01  0.00  0.00  0.00  0.14  0.00  0.14 63.63  9.14  52.9   0.8 115.3  0.88  0.74  0.89
 1982 126   212   202  10.9  37.6  10.9  0.00  0.00  0.61  0.00  0.00  0.00  0.15 -0.01  0.00  0.00  0.00  0.15  0.00  0.15 44.06  3.94  83.4   1.9 114.8  0.88  0.73  0.89
 1982 127   213   203  14.4  38.3  14.4  0.00  0.00  0.46  0.00  0.00  0.00  0.15 -0.01  0.00  0.00  0.00  0.15  0.00  0.15 20.49  3.20  82.1   4.0 114.7  0.90  0.78  0.90
 1982 128   214   204  20.5  39.3  20.5  0.00  0.00  0.22  0.00  0.00  0.00  0.12 -0.01  0.00  0.04  0.00  0.12  0.00  0.12 16.49  2.82  77.0   4.7 112.9  0.91  0.77  0.90
 1982 129   215   205  22.5  40.4  22.5  0.00  0.00  0.14  0.00  0.00  0.00  0.11 -0.01  0.00  0.17  0.00  0.11  0.00  0.11 16.48  3.07  72.5   4.4 111.7  0.91  0.74  0.89
[...]
 1982  59   145   135   4.7  21.5   2.5  0.00  0.46  0.85  0.00  0.06  0.00  0.00 -0.01  0.00  0.53  0.00  0.00  0.00  0.00 99.90 15.00  71.9   0.0 290.8  1.00  1.00  1.00
 1982  60   146   136   8.4  21.6   4.5  0.00  0.46  0.71  0.00  0.00  0.00  0.00 -0.01  0.00  0.16  0.00  0.00  0.00  0.00 99.90 15.00  71.6   0.0 290.8  1.00  1.00  1.00
 1982  61   147   137   8.7  21.6   4.7  0.00  0.45  0.69  0.00  0.00  0.00  0.00 -0.01  0.00  0.13  0.00  0.00  0.00  0.00 99.90 15.00  71.5   0.0 290.8  1.00  1.00  1.00
 1982  62   148   138  -0.2  21.6   0.0  0.00  0.45  1.00  0.00  1.00  0.00  0.00 -0.01  0.00  1.00  0.00  0.00  0.00  0.00 99.90 15.00  71.4   0.0 290.8  1.00  1.00  1.00
 1982  63   149   139  -3.7  21.6   0.0  0.00  0.44  1.00  0.00  1.00  0.00  0.00 -0.01  0.00  1.00  0.00  0.00  0.00  0.00 99.90 15.00  71.3   0.0 290.8  1.00  1.00  1.00
 1982  64   150   140  -4.2  21.6   0.0  0.00  0.44  1.00  0.00  1.00  0.00  0.00 -0.01  0.00  1.00  0.00  0.00  0.00  0.00 99.90 15.00  71.0   0.0 290.8  1.00  1.00  1.00
 1982  65   151   141  -3.0  21.6   0.0  0.00  0.43  1.00  0.00  1.00  0.00  0.00 -0.01  0.00  1.00  0.00  0.00  0.00  0.00 99.90 15.00  70.5   0.0 290.7  1.00  1.00  1.00
 1982  66   152   142  -3.0  21.6   0.0  0.00  0.43  1.00  0.00  1.00  0.00  0.00 -0.01  0.00  1.00  0.00  0.00  0.00  0.00 99.90 15.00  69.9   0.0 290.7  1.00  1.00  1.00
 1982  67   153   143   2.5  21.6   1.4  0.00  0.43  0.94  0.00  0.50  0.00  0.00 -0.01  0.00  0.75  0.00  0.00  0.00  0.00 99.90 15.00  69.6   0.0 290.7  1.00  1.00  1.00
 1982  68   154   144   1.4  21.7   0.8  0.00  0.42  0.98  0.00  0.72  0.00  0.00 -0.01  0.00  0.86  0.00  0.00  0.00  0.00 99.90 15.00  69.1   0.0 290.7  1.00  1.00  1.00
 1982  69   155   145  11.1  21.7   6.5  0.00  0.42  0.60  0.00  0.00  0.00  0.00 -0.01  0.00  0.00  0.00  0.00  0.00  0.00 99.90 15.00  69.2   0.0 290.7  1.00  1.00  1.00
 1982  70   156   146  10.0  21.8   5.9  0.00  0.41  0.64  0.00  0.00  0.00  0.00 -0.01  0.00  0.00  0.00  0.00  0.00  0.00 99.90 15.00  69.2   0.0 290.7  1.00  1.00  1.00
 1982  71   157   147  12.8  21.9   7.6  0.00  0.41  0.53  0.00  0.00  0.00  0.00 -0.01  0.00  0.00  0.00  0.00  0.00  0.00 99.90 15.00  69.4   0.0 290.7  1.00  1.00  1.00
 1982  72   158   148   8.0  22.0   4.8  0.00  0.40  0.72  0.00  0.00  0.00  0.00 -0.01  0.00  0.20  0.00  0.00  0.00  0.00 99.90 15.00  69.4   0.1 290.7  1.00  1.00  1.00
 1982  73   159   149   7.8  22.1   4.7  0.00  0.40  0.73  0.00  0.00  0.00  0.00 -0.01  0.00  0.22  0.00  0.00  0.00  0.00 99.90 15.00  70.0   0.0 290.8  1.00  1.00  1.00
 1982  74   160   150  10.0  22.2   6.1  0.00  0.39  0.64  0.00  0.00  0.00  0.00 -0.01  0.00  0.00  0.00  0.00  0.00  0.00 99.90 15.00  91.3   0.0 290.9  1.00  1.00  1.00
 1982  75   161   151  13.0  22.3   8.0  0.00  0.39  0.52  0.00  0.00  0.00  0.00 -0.01  0.00  0.00  0.00  0.00  0.00  0.00 99.90 15.00  96.0   0.1 289.2  1.00  1.00  1.00
 1982  76   162   152  13.9  22.4   8.5  0.00  0.39  0.48  0.00  0.00  0.00  0.00 -0.01  0.00  0.00  0.00  0.00  0.00  0.00 99.90 14.70  87.8   0.1 278.0  1.00  1.00  1.00
 1982  77   163   153   9.8  22.5   6.0  0.00  0.38  0.65  0.00  0.00  0.00  0.00 -0.01  0.00  0.02  0.00  0.00  0.00  0.00 99.90 15.00  86.1   0.0 275.9  1.00  1.00  1.00
 1982  78   164   154  16.1  22.7  10.0  0.00  0.38  0.40  0.00  0.00  0.00  0.00 -0.01  0.00  0.00  0.00  0.00  0.00  0.00 99.90 11.71  97.0   0.2 275.0  1.00  1.00  1.00
 1982  79   165   155   8.3  22.8   5.2  0.00  0.37  0.71  0.00  0.00  0.00  0.00 -0.01  0.00  0.17  0.00  0.00  0.00  0.00 99.90  8.89  89.4   0.2 267.8  1.00  1.00  1.00
 1982  80   166   156   2.5  22.8   1.6  0.00  0.37  0.94  0.00  0.50  0.00  0.00 -0.01  0.00  0.75  0.00  0.00  0.00  0.00 99.90  9.22  85.5   0.2 266.3  1.00  1.00  1.00
 1982  81   167   157   3.9  22.9   2.5  0.00  0.36  0.88  0.00  0.22  0.00  0.00 -0.01  0.00  0.61  0.00  0.00  0.00  0.00 99.90  7.47  84.0   0.2 266.4  1.00  1.00  1.00
 1982  82   168   158   7.8  23.0   5.0  0.00  0.36  0.73  0.00  0.00  0.00  0.00 -0.01  0.00  0.22  0.00  0.00  0.00  0.00 99.90 12.64  83.2   0.1 266.5  1.00  1.00  1.00
 1982  83   169   159   6.6  23.1   4.3  0.00  0.36  0.77  0.00  0.00  0.00  0.00 -0.01  0.00  0.34  0.00  0.00  0.00  0.00 99.90  7.38  82.4   0.3 266.5  1.00  1.00  1.00
 1982  84   170   160   3.9  23.1   2.5  0.00  0.35  0.89  0.00  0.23  0.00  0.00 -0.01  0.00  0.62  0.00  0.00  0.00  0.00 99.90  6.01  84.3   0.3 266.4  1.00  1.00  1.00
 1982  85   171   161   3.0  23.2   2.0  0.00  0.35  0.92  0.00  0.39  0.00  0.00 -0.01  0.00  0.69  0.00  0.00  0.00  0.00 99.90  6.54  83.0   0.3 266.1  1.00  1.00  1.00
 1982  86   172   162   5.6  23.2   3.6  0.00  0.34  0.82  0.00  0.00  0.00  0.00 -0.01  0.00  0.44  0.00  0.00  0.00  0.00 99.90  7.71  82.1   0.3 266.0  1.00  1.00  1.00
 1982  87   173   163   6.9  23.3   4.6  0.00  0.34  0.76  0.00  0.00  0.00  0.00 -0.01  0.00  0.31  0.00  0.00  0.00  0.00 99.90  9.72  81.4   0.2 265.6  1.00  1.00  1.00
 1982  88   174   164  10.3  23.5   6.8  0.00  0.34  0.63  0.00  0.00  0.00  0.00 -0.01  0.00  0.00  0.00  0.00  0.00  0.00 99.90 12.20  81.0   0.2 265.0  1.00  1.00  1.00
 1982  89   175   165  15.0  23.6  10.0  0.00  0.33  0.44  0.00  0.00  0.00  0.00 -0.01  0.00  0.00  0.00  0.00  0.00  0.00 99.90  3.94  81.4   0.6 264.0  1.00  1.00  1.00
 1982  90   176   166  10.9  23.8   7.3  0.00  0.33  0.61  0.00  0.00  0.00  0.00 -0.01  0.00  0.00  0.00  0.00  0.00  0.00 98.97  3.17  80.4   0.8 262.4  1.00  1.00  1.00
 1982  91   177   167  13.9  24.0   9.4  0.00  0.32  0.48  0.00  0.00  0.00  0.00 -0.01  0.00  0.00  0.00  0.00  0.00  0.00 84.52  2.85  79.5   0.9 261.2  1.00  1.00  1.00
 1982  92   178   168  17.0  24.2  11.5  0.00  0.32  0.36  0.00  0.00  0.00  0.00 -0.01  0.00  0.00  0.00  0.00  0.00  0.00 87.34  3.15  78.9   0.9 259.8  1.00  1.00  1.00
 1982  93   179   169   7.5  24.3   5.1  0.00  0.32  0.74  0.00  0.00  0.00  0.00 -0.01  0.00  0.25  0.00  0.00  0.00  0.00 70.06  2.72  77.6   1.1 258.1  1.00  1.00  1.00
 1982  94   180   170   5.2  24.3   3.6  0.00  0.31  0.83  0.00  0.00  0.00  0.00 -0.01  0.00  0.48  0.00  0.00  0.00  0.00 92.51  3.98  76.4   0.8 257.5  1.00  1.00  1.00
 1982  95   181   171   3.6  24.4   2.5  0.00  0.31  0.90  0.00  0.28  0.00  0.00 -0.01  0.00  0.64  0.00  0.00  0.00  0.00 99.90  8.84  81.9   0.4 257.1  1.00  1.00  1.00
 1982  96   182   172  -0.8  24.4   0.0  0.00  0.30  1.00  0.00  1.00  0.00  0.00 -0.01  0.00  1.00  0.00  0.00  0.00  0.00 99.90  6.02 110.2   0.7 252.2  1.00  1.00  1.00
 1982  97   183   173   3.0  24.4   2.1  0.00  0.30  0.92  0.00  0.39  0.00  0.00 -0.01  0.00  0.69  0.00  0.00  0.00  0.00 99.90 15.00 101.1   0.2 233.6  1.00  1.00  1.00
 1982  98   184   174   4.4  24.5   3.1  0.00  0.30  0.86  0.00  0.12  0.00  0.00 -0.01  0.00  0.56  0.00  0.00  0.00  0.00 99.90  7.62  98.4   0.5 231.0  1.00  1.00  1.00
 1982  99   185   175   4.1  24.5   2.9  0.00  0.29  0.87  0.00  0.17  0.00  0.00 -0.01  0.00  0.59  0.00  0.00  0.00  0.00 76.69  3.49  93.2   1.2 225.3  1.00  1.00  1.00
 1982 100   186   176   8.7  24.6   6.2  0.00  0.29  0.69  0.00  0.00  0.00  0.00 -0.01  0.00  0.13  0.00  0.00  0.00  0.00 67.91  3.47  89.4   1.3 224.9  1.00  1.00  1.00
 1982 101   187   177  13.6  24.8   9.7  0.00  0.28  0.50  0.00  0.00  0.00  0.00 -0.01  0.00  0.00  0.00  0.00  0.00  0.00 58.60  3.02  87.0   1.5 223.7  1.00  1.00  1.00
 1982 102   188   178  20.2  25.1  14.6  0.00  0.28  0.23  0.00  0.00  0.00  0.00 -0.01  0.00  0.02  0.00  0.00  0.00  0.00 43.10  2.43  84.9   2.0 221.8  1.00  1.00  1.00
 1982 103   189   179  16.1  25.3  11.7  0.00  0.28  0.40  0.00  0.00  0.00  0.00 -0.01  0.00  0.00  0.00  0.00  0.00  0.00 41.76  2.61  83.2   2.0 219.2  1.00  1.00  1.00
 1982 104   190   180  21.1  25.5  15.4  0.00  0.27  0.19  0.00  0.00  0.00  0.00 -0.01  0.00  0.08  0.00  0.00  0.00  0.00 33.96  2.35  81.4   2.4 217.0  1.00  1.00  1.00
 1982 105   191   181  24.2  25.8  17.7  0.00  0.27  0.07  0.00  0.00  0.00  0.00 -0.01  0.00  0.28  0.00  0.00  0.00  0.00 41.16  3.13  80.2   1.9 214.4  1.00  1.00  1.00
 1982 106   192   182  18.4  26.1  13.5  0.00  0.27  0.31  0.00  0.00  0.00  0.00 -0.01  0.00  0.00  0.00  0.00  0.00  0.00 91.07  7.35  80.0   0.9 212.3  1.00  1.00  1.00
 1982 107   193   183  10.0  26.2   7.4  0.00  0.26  0.64  0.00  0.00  0.00  0.00 -0.01  0.00  0.00  0.00  0.00  0.00  0.00 31.27  2.67  77.7   2.5 210.3  1.00  1.00  1.00
 1982 108   194   184  12.2  26.4   9.0  0.00  0.26  0.55  0.00  0.00  0.00  0.00 -0.01  0.00  0.00  0.00  0.00  0.00  0.00 29.23  2.80  75.5   2.6 208.9  1.00  1.00  1.00
 1982 109   195   185  15.3  26.5  11.4  0.00  0.25  0.43  0.00  0.00  0.00  0.00 -0.01  0.00  0.00  0.00  0.00  0.00  0.00 27.73  2.88  75.1   2.7 207.1  1.00  1.00  1.00
 1982 110   196   186   6.7  26.5   6.6  0.00  0.00  0.77  0.00  0.00  0.00  0.00 -0.01  0.00  0.33  0.00  0.00  0.00  0.00 49.22  3.54 118.6   2.4 201.6  1.00  1.00  1.00
 1982 111   197   187   7.0  26.5   7.0  0.00  0.00  0.76  0.00  0.00  0.00  0.00 -0.01  0.00  0.30  0.00  0.00  0.00  0.00 46.15  4.27 106.8   2.3 186.8  1.00  1.00  1.00
 1982 112   198   188   8.6  26.5   8.6  0.00  0.00  0.70  0.00  0.00  0.00  0.00 -0.01  0.00  0.14  0.00  0.00  0.00  0.00 35.25  3.69 100.3   2.8 182.0  1.00  1.00  1.00
 1982 113   199   189  11.7  26.5  11.7  0.00  0.00  0.57  0.00  0.00  0.00  0.00 -0.01  0.00  0.00  0.00  0.00  0.00  0.00 36.11  4.18  97.1   2.7 180.8  1.00  1.00  1.00
 1982 114   200   190  16.4  26.5  16.4  0.00  0.00  0.38  0.00  0.00  0.00  0.00 -0.01  0.00  0.00  0.00  0.00  0.00  0.00 35.86  4.53  93.8   2.6 179.1  1.00  1.00  1.00
 1982 115   201   191  13.1  26.5  13.1  0.00  0.00  0.52  0.00  0.00  0.00  0.00 -0.01  0.00  0.00  0.00  0.00  0.00  0.00 60.65  7.83  92.6   1.5 176.8  1.00  1.00  1.00
 1982 116   202   192  14.1  30.5  14.1  0.00  0.00  0.47  0.00  0.00  0.00  0.00 -0.01  0.00  0.00  0.00  0.00  0.00  0.00 25.82  3.63  88.3   3.4 175.5  1.00  1.00  1.00
 1982 117   203   193  10.6  31.0  10.6  0.00  0.00  0.62  0.00  0.00  0.00  0.00 -0.01  0.00  0.00  0.00  0.00  0.00  0.00 99.90 13.18 126.9   0.9 169.6  1.00  1.00  1.00
 1982 118   204   194   8.4  31.4   8.4  0.00  0.00  0.71  0.00  0.00  0.00  0.00 -0.01  0.00  0.16  0.00  0.00  0.00  0.00 99.90 15.00 124.9   0.2 163.1  1.00  1.00  1.00
 1982 119   205   195  10.0  31.9  10.0  0.00  0.00  0.64  0.00  0.00  0.00  0.00 -0.01  0.00  0.00  0.00  0.00  0.00  0.00 99.90 15.00 128.7   0.9 154.1  1.00  1.00  1.00
 1982 120   206   196  13.9  32.5  13.9  0.00  0.00  0.48  0.00  0.00  0.00  0.00 -0.01  0.00  0.00  0.00  0.00  0.00  0.00 82.83  9.50 121.5   1.5 144.5  1.00  1.00  1.00
 1982 121   207   197  16.1  33.3  16.1  0.00  0.00  0.39  0.00  0.00  0.00  0.00 -0.01  0.00  0.00  0.00  0.00  0.00  0.00 54.80  6.92 112.7   2.1 128.6  1.00  1.00  1.00
 1982 122   208   198  18.0  34.1  18.0  0.00  0.00  0.32  0.00  0.00  0.00  0.00 -0.01  0.00  0.00  0.00  0.00  0.00  0.00 38.82  5.27 107.8   2.8 121.7  1.00  1.00  1.00
 1982 123   209   199  22.0  35.2  22.0  0.00  0.00  0.16  0.00  0.00  0.00  0.00 -0.01  0.00  0.13  0.00  0.00  0.00  0.00 30.03  4.35 104.3   3.5 119.9  1.00  1.00  1.00
 1982 124   210   200  24.5  36.3  24.5  0.00  0.00  0.06  0.00  0.00  0.00  0.00 -0.01  0.00  0.30  0.00  0.00  0.00  0.00 23.26  3.65 100.1   4.3 118.1  1.00  1.00  1.00
 1982 125   211   201  18.0  37.1  18.0  0.00  0.00  0.32  0.00  0.00  0.00  0.00 -0.01  0.00  0.00  0.00  0.00  0.00  0.00 99.90 15.00  99.8   0.9 116.9  1.00  1.00  1.00
 1982 126   212   202  10.9  37.6  10.9  0.00  0.00  0.61  0.00  0.00  0.00  0.00 -0.01  0.00  0.00  0.00  0.00  0.00  0.00 62.45  8.08 127.5   2.0 114.5  1.00  1.00  1.00
 1982 127   213   203  14.4  38.3  14.4  0.00  0.00  0.46  0.00  0.00  0.00  0.00 -0.01  0.00  0.00  0.00  0.00  0.00  0.00 28.74  3.93 123.4   4.3 111.9  1.00  1.00  1.00
 1982 128   214   204  20.5  39.3  20.5  0.00  0.00  0.22  0.00  0.00  0.00  0.00 -0.01  0.00  0.04  0.00  0.00  0.00  0.00 22.78  3.53 113.9   5.0 103.8  1.00  1.00  1.00
 1982 129   215   205  22.5  40.4  22.5  0.00  0.00  0.14  0.00  0.00  0.00  0.00 -0.01  0.00  0.17  0.00  0.00  0.00  0.00 23.26  3.91 109.4   4.7 101.9  1.00  1.00  1.00
 1982 130   216   206  22.5  41.6  22.5  0.00  0.00  0.14  0.00  0.00  0.00  0.00 -0.01  0.00  0.17  0.00  0.00  0.00  0.00 30.64  5.49 106.4   3.5 100.6  1.00  1.00  1.00
 1982 131   217   207  22.0  42.7  22.0  0.00  0.00  0.16  0.00  0.00  0.00  0.00 -0.01  0.00  0.13  0.00  0.00  0.00  0.00 24.16  4.56 103.4   4.3 101.1  1.00  1.00  1.00
 1982 132   218   208  18.9  43.7  18.9  0.00  0.00  0.28  0.00  0.00  0.00  0.00 -0.01  0.00  0.00  0.00  0.00  0.00  0.00 70.57 11.02 128.6   1.8 100.8  1.00  1.00  1.00
 1982 133   219   209  20.0  44.8  20.0  0.00  0.00  0.24  0.00  0.00  0.00  0.00 -0.01  0.00  0.00  0.00  0.00  0.00  0.00 64.23 10.32 126.5   2.0 100.5  1.00  1.00  1.00
 1982 134   220   210  17.8  45.7  17.8  0.00  0.00  0.33  0.00  0.00  0.00  0.00 -0.01  0.00  0.00  0.00  0.00  0.00  0.00 61.66 10.18 124.6   2.0 100.3  1.00  1.00  1.00
 1982 135   221   211  17.8  46.6  17.8  0.00  0.00  0.33  0.00  0.00  0.00  0.00 -0.01  0.00  0.00  0.00  0.00  0.00  0.00 27.95  4.46 130.3   4.7  99.7  1.00  1.00  1.00
 1982 136   222   212  19.5  47.7  19.5  0.00  0.00  0.26  0.00  0.00  0.00  0.00 -0.01  0.00  0.00  0.00  0.00  0.00  0.00 63.36 10.49 129.2   2.0  98.9  1.00  1.00  1.00
 1982 137   223   213  19.5  48.7  19.5  0.00  0.00  0.26  0.00  0.00  0.00  0.00 -0.01  0.00  0.00  0.00  0.00  0.00  0.00 44.03  7.33 129.9   3.0  97.9  1.00  1.00  1.00
 1982 138   224   214  20.3  49.7  20.3  0.00  0.00  0.23  0.00  0.00  0.00  0.00 -0.01  0.00  0.02  0.00  0.00  0.00  0.00 27.32  4.76 125.8   4.6  97.1  1.00  1.00  1.00
 1982 139   225   215  23.6  53.8  23.6  0.00  0.00  0.10  0.00  0.00  0.00  0.00 -0.01  0.00  0.24  0.00  0.00  0.00  0.00 26.61  4.92 121.1   4.6  96.6  1.00  1.00  1.00
 1982 140   226   216  21.1  58.0  21.1  0.00  0.00  0.20  0.00  0.00  0.00  0.00 -0.01  0.00  0.07  0.00  0.00  0.00  0.00 46.21  8.85 119.0   2.6  97.3  1.00  1.00  1.00
 1982 141   227   217  18.0  64.0  18.0  0.00  0.00  0.32  0.00  0.00  0.00  0.00 -0.01  0.00  0.00  0.00  0.00  0.00  0.00 38.64  6.43 138.2   3.6  96.9  1.00  1.00  1.00
 1982 142   228   218  16.1  70.3  16.1  0.00  0.00  0.39  0.00  0.00  0.00  0.00 -0.01  0.00  0.00  0.00  0.00  0.00  0.00 48.56  8.38 134.4   2.8  96.2  1.00  1.00  1.00
 1982 143   229   219  18.0  71.7  18.0  0.00  0.00  0.32  0.00  0.00  0.00  0.00 -0.01  0.00  0.00  0.00  0.00  0.00  0.00 32.08  5.90 126.9   4.0  92.7  1.00  1.00  1.00
 1982 144   230   220  18.7  73.1  18.7  0.00  0.00  0.29  0.00  0.00  0.00  0.00 -0.01  0.00  0.00  0.00  0.00  0.00  0.00 80.35 14.97 125.9   1.6  93.3  1.00  1.00  1.00
 1982 145   231   221  20.0  74.7  20.0  0.00  0.00  0.24  0.00  0.00  0.00  0.00 -0.01  0.00  0.00  0.00  0.00  0.00  0.00 58.66  9.81 140.3   2.4  93.2  1.00  1.00  1.00
 1982 146   232   222  16.4  75.9  16.4  0.00  0.00  0.38  0.00  0.00  0.00  0.00 -0.01  0.00  0.00  0.00  0.00  0.00  0.00 37.55  5.70 154.6   4.1  89.4  1.00  1.00  1.00
 1982 147   233   223  18.4  77.4  18.4  0.00  0.00  0.31  0.00  0.00  0.00  0.00 -0.01  0.00  0.00  0.00  0.00  0.00  0.00 31.00  4.89 149.4   4.8  84.5  1.00  1.00  1.00
 1982 148   234   224  23.3  79.1  23.3  0.00  0.00  0.11  0.00  0.00  0.00  0.00 -0.01  0.00  0.22  0.00  0.00  0.00  0.00 47.57  8.18 137.4   2.9  75.6  1.00  1.00  1.00
 1982 149   235   225  21.4  80.2  21.4  0.00  0.00  0.18  0.00  0.00  0.00  0.00 -0.01  0.00  0.09  0.00  0.00  0.00  0.00 38.17  5.79 155.9   4.1  72.7  1.00  1.00  1.00
 1982 150   236   226  20.5  80.6  20.5  0.00  0.00  0.18  0.00  0.00  0.00  0.00 -0.01  0.00  0.04  0.00  0.00  0.00  0.00 48.25  7.70 148.7   3.1  69.4  1.00  1.00  1.00
 1982 151   237   227  17.8  81.0  17.8  0.00  0.00  0.18  0.00  0.00  0.00  0.00 -0.01  0.00  0.00  0.00  0.00  0.00  0.00 65.46 10.11 153.7   2.3  64.9  1.00  1.00  1.00
 1982 152   238   228  12.8  81.2  12.8  0.00  0.00  0.18  0.00  0.00  0.00  0.00 -0.01  0.00  0.00  0.00  0.00  0.00  0.00 32.77  5.60 139.1   4.2  55.4  1.00  1.00  1.00
 1982 153   239   229  15.2  81.5  15.2  0.00  0.00  0.18  0.00  0.00  0.00  0.00 -0.01  0.00  0.00  0.00  0.00  0.00  0.00 82.58 14.33 137.5   1.7  53.5  1.00  1.00  1.00
 1982 154   240   230  15.0  81.8  15.0  0.00  0.00  0.18  0.00  0.00  0.00  0.00 -0.01  0.00  0.00  0.00  0.00  0.00  0.00 99.90 15.00 137.6   1.1  51.2  1.00  1.00  0.97
 1982 155   241   231  17.0  82.2  17.0  0.00  0.00  0.18  0.00  0.00  0.00  0.00 -0.01  0.00  0.00  0.00  0.00  0.00  0.00 60.75 10.54 137.7   2.3  50.1  1.00  1.00  0.93
 1982 156   242   232  17.8  82.5  17.8  0.00  0.00  0.18  0.00  0.00  0.00  0.00 -0.01  0.00  0.00  0.00  0.00  0.00  0.00 39.15  6.98 134.1   3.4  49.1  0.98  1.00  0.89
 1982 157   243   233  25.5  83.0  25.5  0.00  0.00  0.18  0.00  0.05  0.00  0.03 -0.01  0.00  0.37  0.00  0.03  0.00  0.03 37.85  6.94 130.8   3.5  48.0  0.88  0.98  0.86
 1982 158   244   234  20.2  83.4  20.2  0.00  0.00  0.18  0.00  0.00  0.00  0.16 -0.01  0.00  0.02  0.00  0.16  0.00  0.16 32.55  5.65 138.2   4.2  47.4  0.78  0.97  0.84
 1982 159   245   235  25.8  83.9  25.8  0.00  0.00  0.18  0.00  0.08  0.00  0.29 -0.01  0.00  0.39  0.00  0.29  0.00  0.29 36.20  6.48 134.4   3.7  47.5  0.70  0.96  0.82
 1982 160   246   236  22.8  84.4  22.8  0.00  0.00  0.18  0.00  0.00  0.00  0.41 -0.01  0.00  0.18  0.00  0.41  0.00  0.41 35.64  5.78 148.2   4.2  47.5  0.63  0.95  0.80
 1982 161   247   237  16.4  84.7  16.4  0.00  0.00  0.18  0.00  0.00  0.00  0.51 -0.01  0.00  0.00  0.00  0.51  0.00  0.51 33.25  5.66 141.6   4.3  45.7  0.57  0.94  0.79
 1982 162   248   238  18.0  85.1  18.0  0.00  0.00  0.18  0.00  0.00  0.00  0.60 -0.01  0.00  0.00  0.00  0.60  0.00  0.60 80.84 13.93 139.9   1.7  45.8  0.52  0.94  0.78
 1982 163   249   239  19.8  85.4  19.8  0.00  0.00  0.18  0.00  0.00  0.00  0.67 -0.01  0.00  0.00  0.00  0.67  0.00  0.67 40.15  7.11 136.1   3.4  46.1  0.48  0.94  0.78
 1982 164   250   240  20.9  85.9  20.9  0.00  0.00  0.18  0.00  0.00  0.00  0.73 -0.01  0.00  0.06  0.00  0.73  0.00  0.73 54.49  9.85 133.3   2.4  46.0  0.46  0.94  0.77
 1982 165   251   241  23.9  86.3  23.9  0.00  0.00  0.18  0.00  0.00  0.00  0.78 -0.01  0.00  0.26  0.00  0.78  0.00  0.78 63.64 11.11 131.6   2.1  44.6  0.44  0.94  0.77
 1982 166   252   242  22.5  86.8  22.5  0.00  0.00  0.18  0.00  0.00  0.00  0.81 -0.01  0.00  0.17  0.00  0.81  0.00  0.81 49.51  7.29 149.7   3.0  44.8  0.42  0.95  0.76
 1982 167   253   243  18.6  87.1  18.6  0.00  0.00  0.18  0.00  0.00  0.00  0.84 -0.01  0.00  0.00  0.00  0.84  0.00  0.84 38.51  6.44 143.7   3.7  45.1  0.41  0.95  0.76
 1982 168   254   244  21.1  87.6  21.1  0.00  0.00  0.18  0.00  0.00  0.00  0.87 -0.01  0.00  0.07  0.00  0.87  0.00  0.87 50.95  8.79 139.3   2.7  44.5  0.41  0.96  0.76
 1982 169   255   245  21.1  88.0  21.1  0.00  0.00  0.18  0.00  0.00  0.00  0.89 -0.01  0.00  0.07  0.00  0.89  0.00  0.89 65.74 11.60 136.1   2.1  44.1  0.40  0.96  0.76
 1982 170   256   246  19.2  88.4  19.2  0.00  0.00  0.18  0.00  0.00  0.00  0.91 -0.01  0.00  0.00  0.00  0.91  0.00  0.91 45.46  8.32 131.2   2.9  44.3  0.40  0.97  0.76
 1982 171   257   247  22.8  88.8  22.8  0.00  0.00  0.18  0.00  0.00  0.00  0.93 -0.01  0.00  0.18  0.00  0.93  0.00  0.93 43.22  7.28 127.1   2.9  44.5  0.40  0.98  0.76
 1982 172   258   248  22.2  89.2  22.2  0.00  0.00  0.18  0.00  0.00  0.00  0.94 -0.01  0.00  0.15  0.00  0.94  0.00  0.94 57.22  9.80 124.6   2.2  43.7  0.40  0.99  0.76
 1982 173   259   249  20.8  89.7  20.8  0.00  0.00  0.18  0.00  0.00  0.00  0.96 -0.01  0.00  0.06  0.00  0.96  0.00  0.96 54.77  8.53 136.8   2.5  43.7  0.40  0.99  0.76
 1982 174   260   250  21.7  90.2  21.7  0.00  0.00  0.18  0.00  0.00  0.00  0.98 -0.01  0.00  0.11  0.00  0.98  0.00  0.98 95.52 15.00 133.9   1.4  43.8  0.40  1.00  0.76
