$PLANT NITROGEN ASPECTS OUTPUT FILE

*DSSAT Cropping System Model Ver. 4.8.5.000 -release  SEP 11, 2025 22:39:39

*RUN   1        : DRYLAND  - 0 KG N/HA      CSCER048 KSAS8101    1
 MODEL          : CSCER048 - Wheat
 EXPERIMENT     : KSAS8101 WH N RESPONSE,KANSAS STATE  3FE(N)*2IR  (DSSAT3)
 DATA PATH      :
 TREATMENT  1   : DRYLAND  - 0 KG N/HA      CSCER048
  
@YEAR DOY   DAS   DAP TMEAN  GSTD  NUAC  TNAD SDNAD  RNAD  CNAD  LNAD  SNAD  HNAD   HIND  RSNAD  SNNPD SNN0D SNN1D  RN%D  LN%D  SN%D   HN%D  SDN%D   VN%D LN%RD SN%RD RN%RD  VCN%  VMN% NUPRD NDEMD
 1981 289    10     0  12.8  0.00   0.0   0.9  0.87  0.00   0.0   0.0   0.0   0.0   0.00   0.00   0.00     0     0 0.000 0.000 0.000   0.00   1.90   0.00  0.00  0.00  0.00   0.0  0.00  0.00  0.00
 1981 290    11     1  16.1  5.58   0.0   0.9  0.87  0.00   0.0   0.0   0.0   0.0   0.00   0.00   0.00     0     0 0.000 0.000 0.000   0.00   1.90   0.00  0.00  0.00  0.00   0.0  0.00  0.00  0.00
 1981 291    12     2   9.4  6.54   0.0   0.9  0.86  0.01   0.0   0.0   0.0   0.0   0.00   0.00   0.00     0     0 1.994 0.000 0.000   0.00   1.90   0.00  0.00  0.00  1.00   0.0  0.00  0.00  0.00
 1981 292    13     3  12.2  7.81   0.0   0.9  0.86  0.03   0.0   0.0   0.0   0.0   0.00   0.00   0.00     0 .0000 1.985 0.000 0.000   0.00   1.93   0.00  0.00  0.00  1.00   0.0  0.00  1.19  0.01
 1981 293    14     4  17.5  9.69   0.0   0.9  0.85  0.06   0.0   0.0   0.0   0.0   0.00   0.00   0.00     0 .0000 1.972 0.000 0.000   0.00   1.98   0.00  0.00  0.00  1.00   0.0  0.00  1.67  0.02
 1981 294    15     5  11.7 10.00   0.0   0.9  0.85  0.08   0.0   0.0   0.0   0.0   0.00   0.00   0.00     0 .0001 1.970 0.000 0.000   0.00   2.01   0.00  0.00  0.00  1.00   0.0  0.00  2.00  0.01
 1981 295    16     6   6.2 10.13   0.1   1.0  0.83  0.09   0.1   0.0   0.0   0.0   0.00   0.00   0.00     0 .0001 1.967 6.362 0.000   0.00   2.05   6.40  1.00  0.00  1.00   6.4  0.75  1.33  0.06
 1981 296    17     7   1.9 10.17   0.1   1.0  0.83  0.09   0.1   0.0   0.0   0.0   0.00   0.00   0.00     0 .0001 1.967 6.362 0.000   0.00   2.05   5.75  1.00  0.00  1.00   6.4  0.75  2.00  0.01
 1981 297    18     8   6.1 10.30   0.2   1.0  0.82  0.10   0.1   0.1   0.0   0.0   0.00  -0.00   0.00     0 .0001 1.967 6.362 1.735   0.00   2.09   5.74  1.00  0.88  1.00   6.4  0.75  1.31  0.06
 1981 298    19     9   8.4 10.47   0.2   1.1  0.77  0.11   0.2   0.2   0.0   0.0   0.00   0.00   0.00     0 .0001 1.967 6.361 1.362   0.00   2.09   5.68  1.00  0.69  1.00   6.3  0.75  0.76  0.10
 1981 299    20    10   7.8 10.64   0.3   1.2  0.74  0.12   0.3   0.2   0.0   0.0   0.00   0.00   0.00     0 .0002 1.967 6.359 1.412   0.00   2.12   5.01  1.00  0.72  1.00   6.3  0.75  0.93  0.09
 1981 300    21    11  13.7 10.93   0.4   1.3  0.58  0.14   0.6   0.4   0.0   0.0   0.00   0.00   0.00     0 .0002 1.967 6.357 1.048   0.00   1.90   4.82  1.00  0.53  1.00   6.3  0.75  0.43  0.19
 1981 301    22    12  16.2 11.27   0.5   1.4  0.36  0.16   0.9   0.6   0.0   0.0   0.00  -0.00   0.00     0 .0003 1.967 6.354 0.838   0.00   1.41   4.64  1.00  0.43  1.00   6.3  0.75  0.35  0.25
 1981 302    23    13  17.5 11.63   0.6   1.5  0.10  0.18   1.2   0.8   0.0   0.0   0.00   0.00   0.00     0 .0004 1.966 6.351 0.730   0.00   0.52   4.41  1.00  0.37  1.00   6.3  0.75  0.34  0.28
 1981 303    24    14  16.1 11.97   0.7   1.6  0.00  0.20   1.4   0.9   0.0   0.0   0.00   0.00   0.00     0 .0005 1.956 5.855 0.714   0.00   0.00   4.27  0.92  0.37  0.99   6.3  0.75  0.35  0.30
 1981 304    25    15  13.9 12.13   0.8   1.7  0.00  0.21   1.5   1.0   0.0   0.0   0.00   0.00   0.00     0 .0006 1.916 5.711 0.801   0.00   0.00   4.23  0.90  0.41  0.97   6.3  0.75  0.65  0.17
 1981 305    26    16  12.2 12.26   0.9   1.7  0.00  0.22   1.5   1.0   0.0   0.0   0.00   0.00   0.00     0 .0007 1.887 5.516 0.826   0.00   0.00   4.13  0.87  0.42  0.96   6.3  0.75  0.46  0.14
 1981 306    27    17  10.2 12.37   1.0   1.9  0.00  0.23   1.6   1.1   0.0   0.0   0.00   0.00   0.00     0 .0008 1.895 5.599 0.940   0.00   0.00   4.24  0.88  0.48  0.96   6.3  0.75  1.88  0.12
 1981 307    28    18  11.4 12.49   1.1   2.0  0.00  0.25   1.8   1.2   0.0   0.0   0.00   0.00   0.00     0 .0009 1.902 5.675 1.066   0.00   0.00   4.21  0.90  0.55  0.97   6.3  0.75  1.84  0.14
 1981 308    29    19  10.2 12.60   1.3   2.1  0.00  0.26   1.9   1.2   0.0   0.0   0.00   0.00   0.00     0 .0010 1.908 5.739 1.160   0.00   0.00   4.28  0.91  0.60  0.97   6.3  0.75  1.87  0.12
 1981 309    30    20  10.6 12.71   1.4   2.3  0.00  0.28   2.0   1.3   0.0   0.0   0.00   0.00   0.00     0 .0011 1.916 5.797 1.253   0.00   0.00   3.95  0.91  0.65  0.97   6.3  0.75  1.60  0.14
 1981 310    31    21   6.7 12.78   1.5   2.4  0.00  0.31   2.0   1.4   0.0   0.0   0.00   0.00   0.00     0 .0012 1.923 5.834 1.307   0.00   0.00   3.54  0.92  0.67  0.98   6.3  0.75  2.00  0.08
 1981 311    32    22   9.7 12.88   1.6   2.5  0.00  0.34   2.1   1.4   0.0   0.0   0.00   0.00   0.00     0 .0013 1.928 5.879 1.377   0.00   0.00   3.40  0.93  0.71  0.98   6.3  0.75  2.00  0.13
 1981 312    33    23  10.9 13.00   1.7   2.6  0.00  0.34   2.3   1.5   0.0   0.0   0.00   0.00   0.00     0 .0014 1.930 5.921 1.416   0.00   0.00   3.54  0.94  0.73  0.98   6.3  0.75  2.00  0.12
 1981 313    34    24   2.5 13.02   1.8   2.6  0.00  0.36   2.3   1.5   0.0   0.0   0.00   0.00   0.00     0 .0015 1.933 5.943 1.444   0.00   0.00   3.35  0.94  0.75  0.98   6.3  0.75  2.00  0.03
 1981 314    35    25   5.6 13.08   1.8   2.7  0.00  0.39   2.3   1.6   0.0   0.0   0.00   0.00   0.00     0 .0015 1.937 5.968 1.481   0.00   0.00   3.06  0.94  0.77  0.99   6.3  0.75  2.00  0.08
 1981 315    36    26   7.5 13.16   1.9   2.8  0.00  0.42   2.4   1.6   0.0   0.0   0.00   0.00   0.00     0 .0016 1.941 5.995 1.523   0.00   0.00   2.87  0.95  0.79  0.99   6.3  0.75  2.00  0.11
 1981 316    37    27  10.9 13.27   2.1   3.0  0.00  0.45   2.5   1.7   0.0   0.0   0.00   0.00   0.00     0 .0018 1.944 6.027 1.576   0.00   0.00   2.78  0.95  0.82  0.99   6.3  0.75  1.64  0.17
 1981 317    38    28  10.6 13.38   2.3   3.2  0.00  0.48   2.7   1.8   0.0   0.0   0.00   0.00   0.00     0 .0020 1.946 6.055 1.620   0.00   0.00   2.70  0.96  0.84  0.99   6.3  0.75  1.71  0.17
 1981 318    39    29  13.0 13.52   2.5   3.3  0.00  0.51   2.8   1.9   0.0   0.0   0.00   0.00   0.00     0 .0022 1.948 6.081 1.662   0.00   0.00   2.70  0.96  0.87  0.99   6.3  0.74  1.55  0.19
 1981 319    40    30  15.0 13.68   2.7   3.6  0.00  0.53   3.0   2.0   0.0   0.0   0.00   0.00   0.00     0 .0025 1.950 6.106 1.700   0.00   0.00   2.70  0.97  0.89  0.99   6.3  0.74  1.36  0.22
 1981 320    41    31  17.5 13.86   3.0   3.8  0.00  0.57   3.3   2.2   0.0   0.0   0.00   0.00   0.00     0 .0029 1.952 6.128 1.734   0.00   0.00   2.68  0.97  0.91  0.99   6.3  0.74  1.17  0.26
 1981 321    42    32  12.8 14.00   3.2   4.0  0.00  0.61   3.4   2.3   0.0   0.0   0.00   0.00   0.00     0 .0031 1.953 6.144 1.756   0.00   0.00   2.61  0.98  0.92  1.00   6.3  0.74  1.56  0.20
 1981 322    43    33  14.1 14.15   3.4   4.3  0.00  0.63   3.6   2.4   0.0   0.0   0.00   0.00   0.00     0 .0035 1.955 6.160 1.778   0.00   0.00   2.63  0.98  0.94  1.00   6.3  0.74  1.40  0.24
 1981 323    44    34   4.1 14.19   3.4   4.3  0.00  0.64   3.7   2.4   0.0   0.0   0.00   0.02   0.00 .0033 .0036 1.955 6.167 1.785   0.00   0.00   2.62  0.98  0.94  1.00   6.3  0.74  2.00  0.04
 1981 324    45    35   0.0 14.19   3.4   4.3  0.00  0.64   3.7   2.4   0.0   0.0   0.00   0.02   0.00 .0033 .0036 1.955 6.173 1.791   0.00   0.00   2.62  0.98  0.94  1.00   6.3  0.74  2.00  0.00
 1981 325    46    36   2.5 14.22   3.4   4.3  0.00  0.66   3.7   2.4   0.0   0.0   0.00   0.01   0.00 .0052 .0036 1.956 6.179 1.797   0.00   0.00   2.52  0.98  0.95  1.00   6.3  0.74  2.00  0.01
 1981 326    47    37   7.0 14.29   3.5   4.4  0.00  0.69   3.7   2.5   0.0   0.0   0.00   0.04   0.00 .0107 .0038 1.957 6.187 1.805   0.00   0.00   2.44  0.98  0.95  1.00   6.2  0.74  2.00  0.09
 1981 327    48    38  10.6 14.40   3.7   4.5  0.00  0.73   3.8   2.5   0.0   0.0   0.00   0.06   0.00 .0190 .0041 1.957 6.196 1.816   0.00   0.00   2.38  0.99  0.96  1.00   6.2  0.74  2.00  0.16
 1981 328    49    39   6.4 14.47   3.7   4.6  0.00  0.76   3.8   2.5   0.0   0.0   0.00   0.04   0.00 .0241 .0042 1.958 6.201 1.822   0.00   0.00   2.26  0.99  0.96  1.00   6.2  0.74  2.00  0.04
 1981 329    50    40  12.2 14.60   3.9   4.8  0.00  0.79   4.0   2.6   0.0   0.0   0.00   0.07   0.00 .0337 .0046 1.959 6.208 1.830   0.00   0.00   2.23  0.99  0.97  1.00   6.2  0.74  1.91  0.18
 1981 330    51    41   6.7 14.67   3.9   4.8  0.00  0.82   4.0   2.6   0.0   0.0   0.00   0.04   0.00 .0389 .0048 1.959 6.212 1.834   0.00   0.00   2.15  0.99  0.98  1.00   6.2  0.74  2.00  0.02
 1981 331    52    42  -0.8 14.67   3.9   4.8  0.00  0.82   4.0   2.6   0.0   0.0   0.00   0.04   0.00 .0389 .0048 1.959 6.215 1.837   0.00   0.00   2.15  0.99  0.98  1.00   6.2  0.74  2.00  0.00
 1981 332    53    43   2.5 14.69   3.9   4.8  0.00  0.83   3.9   2.6   0.0   0.0   0.00   0.03   0.00 .0409 .0049 1.959 6.218 1.839   0.00   0.00   2.11  0.99  0.98  1.00   6.2  0.74  2.00  0.00
 1981 333    54    44   3.0 14.73   3.9   4.8  0.00  0.84   3.9   2.6   0.0   0.0   0.00   0.02   0.00 .0433 .0050 1.959 6.221 1.841   0.00   0.00   2.07  0.99  0.98  1.00   6.2  0.74  2.00  0.00
 1981 334    55    45   5.9 14.79   4.0   4.8  0.00  0.85   4.0   2.6   0.0   0.0   0.00   0.03   0.00 .0480 .0051 1.959 6.224 1.844   0.00   0.00   2.08  0.99  0.98  1.00   6.2  0.74  2.00  0.04
 1981 335    56    46   2.2 14.81   4.0   4.8  0.00  0.85   4.0   2.6   0.0   0.0   0.00   0.03   0.00 .0497 .0052 1.960 6.226 1.845   0.00   0.00   2.06  0.99  0.98  1.00   6.2  0.74  2.00  0.00
 1981 336    57    47   3.6 14.85   4.0   4.8  0.00  0.88   3.9   2.6   0.0   0.0   0.00   0.02   0.00 .0526 .0053 1.960 6.228 1.847   0.00   0.00   1.99  0.99  0.99  1.00   6.2  0.74  2.00  0.02
 1981 337    58    48   4.5 14.90   4.0   4.9  0.00  0.91   4.0   2.6   0.0   0.0   0.00   0.03   0.00 .0561 .0055 1.960 6.229 1.849   0.00   0.00   1.91  1.00  0.99  1.00   6.2  0.74  2.00  0.05
 1981 338    59    49   3.9 14.94   4.1   4.9  0.00  0.94   3.9   2.6   0.0   0.0   0.00   0.02   0.00 .0592 .0056 1.959 6.231 1.850   0.00   0.00   1.83  1.00  0.99  1.00   6.2  0.74  2.00  0.03
 1981 339    60    50   3.9 14.98   4.1   4.9  0.00  0.96   4.0   2.6   0.0   0.0   0.00   0.02   0.00 .0623 .0057 1.959 6.232 1.851   0.00   0.00   1.81  1.00  0.99  1.00   6.2  0.74  2.00  0.02
 1981 340    61    51   8.9 15.07   4.3   5.1  0.00  0.98   4.1   2.7   0.0   0.0   0.00   0.05   0.00 .0693 .0061 1.959 6.234 1.853   0.00   0.00   1.81  1.00  1.00  1.00   6.2  0.74  2.00  0.17
 1981 341    62    52  11.7 15.19   4.5   5.3  0.00  1.02   4.3   2.8   0.0   0.0   0.00   0.10   0.00 .0826 .0065 1.958 6.235 1.853   0.00   0.00   1.83  1.00  1.00  1.00   6.2  0.74  2.00  0.26
 1981 342    63    53   3.7 15.23   4.5   5.3  0.00  1.05   4.3   2.8   0.0   0.0   0.00   0.07   0.00 .0867 .0066 1.958 6.235 1.851   0.00   0.00   1.76  1.00  1.00  1.00   6.2  0.74  2.00  0.00
 1981 343    64    54   2.2 15.26   4.5   5.3  0.00  1.07   4.2   2.8   0.0   0.0   0.00   0.06   0.00 .0893 .0067 1.958 6.234 1.849   0.00   0.00   1.73  1.00  1.00  1.00   6.2  0.74  2.00  0.00
 1981 344    65    55  -0.3 15.26   4.5   5.3  0.00  1.07   4.2   2.8   0.0   0.0   0.00   0.06   0.00 .0893 .0067 1.958 6.234 1.849   0.00   0.00   1.73  1.00  1.00  1.00   6.2  0.74  2.00  0.00
 1981 345    66    56   2.5 15.28   4.5   5.3  0.00  1.07   4.2   2.8   0.0   0.0   0.00   0.06   0.00 .0921 .0068 1.958 6.232 1.848   0.00   0.00   1.72  1.00  1.00  1.00   6.2  0.74  2.00  0.00
 1981 346    67    57   2.8 15.31   4.5   5.3  0.00  1.07   4.2   2.8   0.0   0.0   0.00   0.06   0.00 .0953 .0069 1.958 6.230 1.846   0.00   0.00   1.71  1.00  1.00  1.00   6.2  0.74  2.00  0.00
 1981 347    68    58   2.5 15.34   4.5   5.3  0.00  1.08   4.2   2.8   0.0   0.0   0.00   0.07   0.00 .0982 .0070 1.958 6.228 1.844   0.00   0.00   1.70  1.00  1.00  1.00   6.2  0.74  2.00  0.00
 1981 348    69    59   0.5 15.34   4.5   5.3  0.00  1.08   4.2   2.8   0.0   0.0   0.00   0.07   0.00 .0988 .0071 1.957 6.228 1.844   0.00   0.00   1.69  1.00  1.00  1.00   6.2  0.74  2.00  0.00
 1981 349    70    60   0.0 15.34   4.5   5.3  0.00  1.08   4.2   2.8   0.0   0.0   0.00   0.07   0.00 .0988 .0071 1.957 6.228 1.844   0.00   0.00   1.69  1.00  1.00  1.00   6.2  0.74  2.00  0.00
 1981 350    71    61  -4.7 15.34   4.5   5.3  0.00  1.08   4.2   2.8   0.0   0.0   0.00   0.07   0.00 .0988 .0071 1.957 6.228 1.844   0.00   0.00   1.69  1.00  1.00  1.00   6.2  0.74  2.00  0.00
 1981 351    72    62 -12.5 15.34   4.5   5.1  0.00  1.08   4.0   1.4   0.0   0.0   0.00   1.89   0.00 0.345 .0071 1.957 6.228 1.844   0.00   0.00   3.18  1.00  1.00  1.00   6.1  0.74  2.00  0.00
 1981 352    73    63 -13.6 15.34   4.5   4.9  0.00  1.08   3.8   0.4   0.0   0.0   0.00   3.20   0.00 0.523 .0071 1.957 6.228 1.844   0.00   0.00  10.65  1.00  1.00  1.00   5.9  0.73  2.00  0.00
 1981 353    74    64 -11.4 15.34   4.5   4.9  0.00  1.08   3.8   0.3   0.0   0.0   0.00   3.35   0.00 0.542 .0071 1.957 6.228 1.844   0.00   0.00  14.57  1.00  1.00  1.00   5.7  0.72  2.00  0.00
 1981 354    75    65  -4.2 15.34   4.5   4.9  0.00  1.08   3.8   0.3   0.0   0.0   0.00   3.35   0.00 0.542 .0071 1.957 6.228 1.844   0.00   0.00  14.57  1.00  1.00  1.00   5.7  0.72  2.00  0.00
 1981 355    76    66   2.0 15.36   4.5   4.9  0.00  1.08   3.8   0.3   0.0   0.0   0.00   3.34   0.00 0.542 .0071 1.957 6.226 1.842   0.00   0.00  14.53  1.00  1.00  1.00   5.7  0.73  2.00  0.00
 1981 356    77    67   1.7 15.38   4.5   4.9  0.00  1.08   3.8   0.3   0.0   0.0   0.00   3.33   0.00 0.542 .0072 1.957 6.225 1.841   0.00   0.00  14.48  1.00  1.00  1.00   5.7  0.73  2.00  0.00
 1981 357    78    68  -1.1 15.38   4.5   4.9  0.00  1.08   3.8   0.3   0.0   0.0   0.00   3.33   0.00 0.542 .0072 1.957 6.225 1.841   0.00   0.00  14.48  1.00  1.00  1.00   5.7  0.73  2.00  0.00
 1981 358    79    69  -0.3 15.38   4.5   4.9  0.00  1.08   3.8   0.3   0.0   0.0   0.00   3.33   0.00 0.542 .0072 1.957 6.225 1.841   0.00   0.00  14.48  1.00  1.00  1.00   5.7  0.73  2.00  0.00
 1981 359    80    70   1.6 15.40   4.5   4.9  0.00  1.08   3.8   0.3   0.0   0.0   0.00   3.32   0.00 0.542 .0073 1.957 6.223 1.839   0.00   0.00  14.32  1.00  1.00  1.00   5.7  0.73  2.00  0.00
 1981 360    81    71  -1.7 15.40   4.5   4.9  0.00  1.08   3.8   0.3   0.0   0.0   0.00   3.32   0.00 0.542 .0073 1.957 6.223 1.839   0.00   0.00  14.32  1.00  1.00  1.00   5.7  0.73  2.00  0.00
 1981 361    82    72  -3.1 15.40   4.5   4.9  0.00  1.08   3.8   0.3   0.0   0.0   0.00   3.32   0.00 0.542 .0073 1.957 6.223 1.839   0.00   0.00  14.32  1.00  1.00  1.00   5.7  0.73  2.00  0.00
 1981 362    83    73  -4.4 15.40   4.5   4.9  0.00  1.08   3.8   0.3   0.0   0.0   0.00   3.32   0.00 0.542 .0073 1.957 6.223 1.839   0.00   0.00  14.32  1.00  1.00  1.00   5.7  0.73  2.00  0.00
 1981 363    84    74  -3.6 15.40   4.5   4.9  0.00  1.08   3.8   0.3   0.0   0.0   0.00   3.32   0.00 0.542 .0073 1.957 6.223 1.839   0.00   0.00  14.32  1.00  1.00  1.00   5.7  0.73  2.00  0.00
 1981 364    85    75   1.7 15.42   4.5   4.9  0.00  1.08   3.8   0.3   0.0   0.0   0.00   3.31   0.00 0.542 .0073 1.957 6.222 1.838   0.00   0.00  14.15  1.00  1.00  1.00   5.7  0.73  2.00  0.00
 1981 365    86    76   0.0 15.42   4.5   4.9  0.00  1.08   3.8   0.3   0.0   0.0   0.00   3.31   0.00 0.542 .0073 1.957 6.222 1.838   0.00   0.00  14.15  1.00  1.00  1.00   5.7  0.73  2.00  0.00
 1982   1    87    77  -6.1 15.42   4.5   4.9  0.00  1.08   3.8   0.3   0.0   0.0   0.00   3.31   0.00 0.542 .0073 1.957 6.222 1.838   0.00   0.00  14.15  1.00  1.00  1.00   5.7  0.73  2.00  0.00
 1982   2    88    78   0.8 15.43   4.5   4.9  0.00  1.08   3.8   0.3   0.0   0.0   0.00   3.31   0.00 0.542 .0074 1.957 6.221 1.837   0.00   0.00  14.14  1.00  1.00  1.00   5.7  0.73  2.00  0.00
 1982   3    89    79  -6.3 15.43   4.5   4.9  0.00  1.08   3.8   0.3   0.0   0.0   0.00   3.31   0.00 0.542 .0074 1.957 6.221 1.837   0.00   0.00  14.14  1.00  1.00  1.00   5.7  0.73  2.00  0.00
 1982   4    90    80  -6.1 15.43   4.5   4.9  0.00  1.08   3.8   0.3   0.0   0.0   0.00   3.31   0.00 0.542 .0074 1.957 6.221 1.837   0.00   0.00  14.14  1.00  1.00  1.00   5.7  0.73  2.00  0.00
 1982   5    91    81  -1.6 15.43   4.5   4.9  0.00  1.08   3.8   0.3   0.0   0.0   0.00   3.31   0.00 0.542 .0074 1.957 6.221 1.837   0.00   0.00  14.14  1.00  1.00  1.00   5.7  0.73  2.00  0.00
 1982   6    92    82 -10.9 15.43   4.5   4.8  0.00  1.08   3.8   0.3   0.0   0.0   0.00   3.38   0.00 0.551 .0074 1.957 6.221 1.837   0.00   0.00  16.88  1.00  1.00  1.00   5.7  0.72  2.00  0.00
 1982   7    93    83 -11.4 15.43   4.5   4.8  0.00  1.08   3.8   0.2   0.0   0.0   0.00   3.47   0.00 0.564 .0074 1.957 6.221 1.837   0.00   0.00  23.02  1.00  1.00  1.00   5.5  0.72  2.00  0.00
 1982   8    94    84  -2.8 15.43   4.5   4.8  0.00  1.08   3.8   0.2   0.0   0.0   0.00   3.47   0.00 0.564 .0074 1.957 6.221 1.837   0.00   0.00  23.02  1.00  1.00  1.00   5.5  0.72  2.00  0.00
 1982   9    95    85  -8.4 15.43   4.5   4.8  0.00  1.08   3.8   0.2   0.0   0.0   0.00   3.47   0.00 0.564 .0074 1.957 6.221 1.837   0.00   0.00  23.02  1.00  1.00  1.00   5.5  0.72  2.00  0.00
 1982  10    96    86 -18.6 15.43   4.5   4.8  0.00  1.08   3.7   0.0   0.0   0.0   0.00   3.69   0.00 0.593 .0074 1.957 6.221 1.837   0.00   0.00 169.50  1.00  1.00  1.00   3.1  0.64  2.00  0.00
 1982  11    97    87 -13.4 15.43   4.5   4.8  0.00  1.08   3.7   0.0   0.0   0.0   0.00   3.69   0.00 0.593 .0074 1.957 6.221 1.837   0.00   0.00 169.50  1.00  1.00  1.00   3.1  0.64  2.00  0.00
 1982  12    98    88  -9.1 15.43   4.5   4.8  0.00  1.08   3.7   0.0   0.0   0.0   0.00   3.69   0.00 0.593 .0074 1.957 6.221 1.837   0.00   0.00 169.50  1.00  1.00  1.00   3.1  0.64  2.00  0.00
 1982  13    99    89 -14.5 15.43   4.5   4.8  0.00  1.08   3.7   0.0   0.0   0.0   0.00   3.69   0.00 0.593 .0074 1.957 6.221 1.837   0.00   0.00 169.50  1.00  1.00  1.00   3.1  0.64  2.00  0.00
 1982  14   100    90  -3.0 15.43   4.5   4.8  0.00  1.08   3.7   0.0   0.0   0.0   0.00   3.69   0.00 0.593 .0074 1.957 6.221 1.837   0.00   0.00 169.50  1.00  1.00  1.00   3.1  0.64  2.00  0.00
 1982  15   101    91  -1.4 15.43   4.5   4.8  0.00  1.08   3.7   0.0   0.0   0.0   0.00   3.69   0.00 0.593 .0074 1.957 6.221 1.837   0.00   0.00 169.50  1.00  1.00  1.00   3.1  0.64  2.00  0.00
 1982  16   102    92 -14.1 15.43   4.5   4.8  0.00  1.08   3.7   0.0   0.0   0.0   0.00   3.69   0.00 0.593 .0074 1.957 6.221 1.837   0.00   0.00 169.50  1.00  1.00  1.00   3.1  0.64  2.00  0.00
 1982  17   103    93  -8.7 15.43   4.5   4.8  0.00  1.08   3.7   0.0   0.0   0.0   0.00   3.69   0.00 0.593 .0074 1.957 6.221 1.837   0.00   0.00 169.50  1.00  1.00  1.00   3.1  0.64  2.00  0.00
 1982  18   104    94   0.3 15.43   4.5   4.8  0.00  1.08   3.7   0.0   0.0   0.0   0.00   3.69   0.00 0.593 .0074 1.957 6.220 1.837   0.00   0.00 169.18  1.00  1.00  1.00   3.1  0.64  2.00  0.00
 1982  19   105    95  -0.6 15.43   4.5   4.8  0.00  1.08   3.7   0.0   0.0   0.0   0.00   3.69   0.00 0.593 .0074 1.957 6.220 1.837   0.00   0.00 169.18  1.00  1.00  1.00   3.1  0.64  2.00  0.00
 1982  20   106    96  -3.3 15.43   4.5   4.8  0.00  1.08   3.7   0.0   0.0   0.0   0.00   3.69   0.00 0.593 .0074 1.957 6.220 1.837   0.00   0.00 169.18  1.00  1.00  1.00   3.1  0.64  2.00  0.00
 1982  21   107    97  -5.0 15.43   4.5   4.8  0.00  1.08   3.7   0.0   0.0   0.0   0.00   3.69   0.00 0.593 .0074 1.957 6.220 1.837   0.00   0.00 169.18  1.00  1.00  1.00   3.1  0.64  2.00  0.00
 1982  22   108    98  -2.2 15.43   4.5   4.8  0.00  1.08   3.7   0.0   0.0   0.0   0.00   3.69   0.00 0.593 .0074 1.957 6.220 1.837   0.00   0.00 169.18  1.00  1.00  1.00   3.1  0.64  2.00  0.00
 1982  23   109    99 -10.9 15.43   4.5   4.8  0.00  1.08   3.7   0.0   0.0   0.0   0.00   3.69   0.00 0.593 .0074 1.957 6.220 1.837   0.00   0.00 170.04  1.00  1.00  1.00   3.1  0.64  2.00  0.00
 1982  24   110   100  -7.5 15.43   4.5   4.8  0.00  1.08   3.7   0.0   0.0   0.0   0.00   3.69   0.00 0.593 .0074 1.957 6.220 1.837   0.00   0.00 170.04  1.00  1.00  1.00   3.1  0.64  2.00  0.00
 1982  25   111   101  -1.1 15.43   4.5   4.8  0.00  1.08   3.7   0.0   0.0   0.0   0.00   3.69   0.00 0.593 .0074 1.957 6.220 1.837   0.00   0.00 170.04  1.00  1.00  1.00   3.1  0.64  2.00  0.00
 1982  26   112   102   1.4 15.44   4.5   4.8  0.00  1.08   3.7   0.0   0.0   0.0   0.00   3.68   0.00 0.593 .0074 1.957 6.219 1.835   0.00   0.00 168.46  1.00  1.00  1.00   3.3  0.64  2.00  0.00
 1982  27   113   103   8.1 15.53   4.5   4.8  0.00  1.08   3.7   0.0   0.0   0.0   0.00   3.67   0.00 0.593 .0078 1.956 6.210 1.827   0.00   0.00 162.10  1.00  1.00  1.00   3.7  0.65  2.00  0.00
 1982  28   114   104   0.0 15.53   4.5   4.8  0.00  1.08   3.7   0.0   0.0   0.0   0.00   3.67   0.00 0.593 .0078 1.956 6.210 1.827   0.00   0.00 162.12  1.00  1.00  1.00   3.7  0.65  2.00  0.00
 1982  29   115   105   5.2 15.58   4.5   4.8  0.00  1.08   3.7   0.0   0.0   0.0   0.00   3.66   0.00 0.593 .0080 1.956 6.204 1.822   0.00   0.00 161.30  1.00  1.00  1.00   3.8  0.66  2.00  0.00
 1982  30   116   106   0.0 15.58   4.5   4.8  0.00  1.08   3.7   0.0   0.0   0.0   0.00   3.67   0.00 0.593 .0080 1.956 6.204 1.822   0.00   0.00 161.31  1.00  1.00  1.00   3.8  0.66  2.00  0.00
 1982  31   117   107  -7.2 15.58   4.5   4.8  0.00  1.08   3.7   0.0   0.0   0.0   0.00   3.67   0.00 0.593 .0080 1.956 6.204 1.822   0.00   0.00 161.31  1.00  1.00  1.00   3.8  0.66  2.00  0.00
 1982  32   118   108  -1.9 15.58   4.5   4.8  0.00  1.08   3.7   0.0   0.0   0.0   0.00   3.67   0.00 0.593 .0080 1.956 6.204 1.822   0.00   0.00 161.31  1.00  1.00  1.00   3.8  0.66  2.00  0.00
 1982  33   119   109  -3.9 15.58   4.5   4.8  0.00  1.08   3.7   0.0   0.0   0.0   0.00   3.67   0.00 0.593 .0080 1.956 6.204 1.822   0.00   0.00 161.31  1.00  1.00  1.00   3.8  0.66  2.00  0.00
 1982  34   120   110 -13.0 15.58   4.5   4.8  0.00  1.08   3.7   0.0   0.0   0.0   0.00   3.68   0.00 0.596 .0080 1.956 6.204 1.822   0.00   0.00 220.01  1.00  1.00  1.00   3.2  0.64  2.00  0.00
 1982  35   121   111 -17.0 15.58   4.5   4.8  0.00  1.08   3.7   0.0   0.0   0.0   0.00   3.68   0.00 0.596 .0080 1.956 6.204 1.822   0.00   0.00 220.01  1.00  1.00  1.00   3.2  0.64  2.00  0.00
 1982  36   122   112 -15.5 15.58   4.5   4.8  0.00  1.08   3.7   0.0   0.0   0.0   0.00   3.68   0.00 0.596 .0080 1.956 6.204 1.822   0.00   0.00 220.01  1.00  1.00  1.00   3.2  0.64  2.00  0.00
 1982  37   123   113 -13.8 15.58   4.5   4.8  0.00  1.08   3.7   0.0   0.0   0.0   0.00   3.68   0.00 0.596 .0080 1.956 6.204 1.822   0.00   0.00 220.01  1.00  1.00  1.00   3.2  0.64  2.00  0.00
 1982  38   124   114  -6.4 15.58   4.5   4.8  0.00  1.08   3.7   0.0   0.0   0.0   0.00   3.68   0.00 0.596 .0080 1.956 6.204 1.822   0.00   0.00 220.01  1.00  1.00  1.00   3.2  0.64  2.00  0.00
 1982  39   125   115  -8.1 15.58   4.5   4.8  0.00  1.08   3.7   0.0   0.0   0.0   0.00   3.68   0.00 0.596 .0080 1.956 6.204 1.822   0.00   0.00 220.01  1.00  1.00  1.00   3.2  0.64  2.00  0.00
 1982  40   126   116 -14.4 15.58   4.5   4.8  0.00  1.08   3.7   0.0   0.0   0.0   0.00   3.68   0.00 0.596 .0080 1.956 6.204 1.822   0.00   0.00 220.01  1.00  1.00  1.00   3.2  0.64  2.00  0.00
 1982  41   127   117 -11.6 15.58   4.5   4.8  0.00  1.08   3.7   0.0   0.0   0.0   0.00   3.68   0.00 0.596 .0080 1.956 6.204 1.822   0.00   0.00 220.01  1.00  1.00  1.00   3.2  0.64  2.00  0.00
 1982  42   128   118  -8.9 15.58   4.5   4.8  0.00  1.08   3.7   0.0   0.0   0.0   0.00   3.68   0.00 0.596 .0080 1.956 6.204 1.822   0.00   0.00 220.01  1.00  1.00  1.00   3.2  0.64  2.00  0.00
 1982  43   129   119  -2.2 15.58   4.5   4.8  0.00  1.08   3.7   0.0   0.0   0.0   0.00   3.68   0.00 0.596 .0080 1.956 6.204 1.822   0.00   0.00 220.01  1.00  1.00  1.00   3.2  0.64  2.00  0.00
 1982  44   130   120  -4.1 15.58   4.5   4.8  0.00  1.08   3.7   0.0   0.0   0.0   0.00   3.68   0.00 0.596 .0080 1.956 6.204 1.822   0.00   0.00 220.01  1.00  1.00  1.00   3.2  0.64  2.00  0.00
 1982  45   131   121   2.8 15.61   4.5   4.8  0.00  1.08   3.7   0.0   0.0   0.0   0.00   3.68   0.00 0.596 .0081 1.955 6.200 1.818   0.00   0.00 213.42  1.00  1.00  1.00   3.4  0.65  2.00  0.00
 1982  46   132   122   4.7 15.66   4.5   4.8  0.00  1.08   3.7   0.0   0.0   0.0   0.00   3.67   0.00 0.596 .0083 1.955 6.194 1.813   0.00   0.00 209.07  1.00  1.00  1.00   3.5  0.65  2.00  0.00
 1982  47   133   123   3.6 15.70   4.5   4.8  0.00  1.08   3.7   0.0   0.0   0.0   0.00   3.67   0.00 0.596 .0084 1.955 6.189 1.808   0.00   0.00 207.06  1.00  1.00  1.00   3.6  0.65  2.00  0.00
 1982  48   134   124   2.5 15.73   4.5   4.8  0.00  1.08   3.7   0.0   0.0   0.0   0.00   3.67   0.00 0.596 .0085 1.954 6.186 1.805   0.00   0.00 205.89  1.00  1.00  1.00   3.7  0.65  2.00  0.00
 1982  49   135   125   7.0 15.80   4.5   4.8  0.00  1.08   3.7   0.0   0.0   0.0   0.00   3.66   0.00 0.596 .0088 1.954 6.176 1.796   0.00   0.00 192.33  1.00  1.00  1.00   3.9  0.66  2.00  0.00
 1982  50   136   126   8.9 21.04   4.5   4.8  0.00  1.08   3.7   0.0   0.0   0.0   0.00   3.64   0.00 0.596 .0092 1.953 6.164 1.785   0.00   0.00 172.83  1.00  1.00  1.00   4.2  0.67  2.00  0.00
 1982  51   137   127  11.1 21.13   4.5   4.8  0.00  1.08   3.7   0.1   0.0   0.0   0.00   3.62   0.00 0.596 .0096 1.952 6.148 1.771   0.00   0.00 151.80  1.00  1.00  1.00   4.4  0.68  2.00  0.00
 1982  52   138   128  10.0 21.21   4.5   4.8  0.00  1.08   3.7   0.1   0.0   0.0   0.00   3.60   0.00 0.596 .0100 1.951 6.134 1.759   0.00   0.00 131.61  1.00  1.00  1.00   4.6  0.69  2.00  0.00
 1982  53   139   129  12.2 21.32   4.5   4.8  0.00  1.08   3.7   0.1   0.0   0.0   0.00   3.57   0.00 0.596 .0105 1.949 6.117 1.743   0.00   0.00 112.09  1.00  1.00  1.00   4.8  0.69  2.00  0.00
 1982  54   140   130   9.4 21.40   4.5   4.8  0.00  1.08   3.7   0.1   0.0   0.0   0.00   3.56   0.00 0.596 .0109 1.948 6.104 1.731   0.00   0.00 109.71  1.00  1.00  1.00   4.9  0.69  2.00  0.00
 1982  55   141   131   3.3 21.42   4.5   4.8  0.00  1.08   3.7   0.1   0.0   0.0   0.00   3.54   0.00 0.596 .0110 1.948 6.099 1.726   0.00   0.00  96.82  1.00  1.00  1.00   5.0  0.70  2.00  0.00
 1982  56   142   132  -1.4 21.42   4.5   4.8  0.00  1.08   3.7   0.1   0.0   0.0   0.00   3.54   0.00 0.596 .0110 1.948 6.099 1.726   0.00   0.00  96.83  1.00  1.00  1.00   5.0  0.70  2.00  0.00
 1982  57   143   133  -2.0 21.42   4.5   4.8  0.00  1.08   3.7   0.1   0.0   0.0   0.00   3.54   0.00 0.596 .0110 1.948 6.099 1.726   0.00   0.00  96.83  1.00  1.00  1.00   5.0  0.70  2.00  0.00
 1982  58   144   134   1.7 21.44   4.5   4.8  0.00  1.08   3.7   0.1   0.0   0.0   0.00   3.52   0.00 0.596 .0111 1.948 6.096 1.724   0.00   0.00  90.83  1.00  1.00  1.00   5.1  0.70  2.00  0.00
 1982  59   145   135   4.7 21.48   4.5   4.8  0.00  1.08   3.7   0.1   0.0   0.0   0.00   3.48   0.00 0.596 .0113 1.947 6.089 1.718   0.00   0.00  78.79  1.00  1.00  1.00   5.2  0.70  2.00  0.00
 1982  60   146   136   8.4 21.55   4.5   4.8  0.00  1.09   3.7   0.2   0.0   0.0   0.00   3.42   0.00 0.596 .0116 1.947 6.077 1.706   0.00   0.00  64.41  1.00  1.00  1.00   5.3  0.71  2.00  0.00
 1982  61   147   137   8.7 21.62   4.5   4.8  0.00  1.09   3.7   0.2   0.0   0.0   0.00   3.39   0.00 0.596 .0120 1.946 6.064 1.694   0.00   0.00  60.49  1.00  1.00  1.00   5.3  0.71  2.00  0.00
 1982  62   148   138  -0.2 21.62   4.5   4.8  0.00  1.09   3.7   0.2   0.0   0.0   0.00   3.39   0.00 0.596 .0120 1.946 6.064 1.694   0.00   0.00  60.50  1.00  1.00  1.00   5.3  0.71  2.00  0.00
 1982  63   149   139  -3.7 21.62   4.5   4.8  0.00  1.09   3.7   0.2   0.0   0.0   0.00   3.39   0.00 0.596 .0120 1.946 6.064 1.694   0.00   0.00  60.50  1.00  1.00  1.00   5.3  0.71  2.00  0.00
 1982  64   150   140  -4.2 21.62   4.5   4.8  0.00  1.09   3.7   0.2   0.0   0.0   0.00   3.39   0.00 0.596 .0120 1.946 6.064 1.694   0.00   0.00  60.50  1.00  1.00  1.00   5.3  0.71  2.00  0.00
 1982  65   151   141  -3.0 21.62   4.5   4.8  0.00  1.09   3.7   0.2   0.0   0.0   0.00   3.39   0.00 0.596 .0120 1.946 6.064 1.694   0.00   0.00  60.50  1.00  1.00  1.00   5.3  0.71  2.00  0.00
 1982  66   152   142  -3.0 21.62   4.5   4.8  0.00  1.09   3.7   0.2   0.0   0.0   0.00   3.39   0.00 0.596 .0120 1.946 6.064 1.694   0.00   0.00  60.50  1.00  1.00  1.00   5.3  0.71  2.00  0.00
 1982  67   153   143   2.5 21.64   4.5   4.8  0.00  1.09   3.7   0.2   0.0   0.0   0.00   3.36   0.00 0.596 .0121 1.945 6.060 1.691   0.00   0.00  53.49  1.00  1.00  1.00   5.4  0.71  2.00  0.00
 1982  68   154   144   1.4 21.65   4.5   4.8  0.00  1.09   3.7   0.2   0.0   0.0   0.00   3.35   0.00 0.596 .0121 1.945 6.058 1.689   0.00   0.00  50.74  1.00  1.00  1.00   5.4  0.71  2.00  0.00
 1982  69   155   145  11.1 21.75   4.5   4.8  0.00  1.10   3.7   0.3   0.0   0.0   0.00   3.24   0.00 0.596 .0126 1.944 6.040 1.673   0.00   0.00  41.33  1.00  1.00  1.00   5.5  0.71  2.00  0.00
 1982  70   156   146  10.0 21.83   4.5   4.8  0.00  1.10   3.7   0.4   0.0   0.0   0.00   3.13   0.00 0.596 .0130 1.943 6.024 1.658   0.00   0.00  34.45  1.00  1.00  1.00   5.5  0.72  2.00  0.00
 1982  71   157   147  12.8 21.94   4.5   4.8  0.00  1.10   3.7   0.4   0.0   0.0   0.00   3.06   0.00 0.596 .0135 1.941 6.003 1.639   0.00   0.00  30.89  1.00  1.00  1.00   5.6  0.72  2.00  0.00
 1982  72   158   148   8.0 22.01   4.5   4.8  0.00  1.11   3.7   0.5   0.0   0.0   0.00   2.87   0.00 0.596 .0138 1.940 5.990 1.627   0.00   0.00  24.46  1.00  1.00  1.00   5.6  0.72  2.00  0.00
 1982  73   159   149   7.8 22.07   4.5   4.8  0.00  1.11   3.7   0.5   0.0   0.0   0.00   2.85   0.00 0.596 .0142 1.939 5.977 1.615   0.00   0.00  23.93  1.00  1.00  1.00   5.6  0.72  2.00  0.00
 1982  74   160   150  10.0 22.16   4.5   4.8  0.00  1.12   3.7   0.6   0.0   0.0   0.00   2.77   0.00 0.596 .0146 1.938 5.960 1.600   0.00   0.00  21.99  1.00  1.00  1.00   5.6  0.72  2.00  0.00
 1982  75   161   151  13.0 22.27   4.5   4.8  0.00  1.13   3.7   0.8   0.0   0.0   0.00   2.46   0.00 0.596 .0151 1.936 5.938 1.580   0.00   0.00  16.78  1.00  1.00  1.00   5.6  0.72  2.00  0.00
 1982  76   162   152  13.9 22.38   4.5   4.8  0.00  1.15   3.6   1.0   0.0   0.0   0.00   2.10   0.00 0.596 .0157 1.935 5.915 1.559   0.00   0.00  13.05  1.00  1.00  1.00   5.6  0.72  2.00  0.00
 1982  77   163   153   9.8 22.51   4.5   4.8  0.00  1.15   3.6   1.0   0.0   0.0   0.00   2.05   0.00 0.596 .0161 1.934 5.898 1.544   0.00   0.00  12.62  1.00  1.00  1.00   5.6  0.72  2.00  0.00
 1982  78   164   154  16.1 22.71   4.5   4.8  0.00  1.18   3.6   1.3   0.0   0.0   0.00   1.60   0.00 0.596 .0168 1.931 5.871 1.519   0.00   0.00   9.93  1.00  1.00  1.00   5.6  0.72  2.00  0.00
 1982  79   165   155   8.3 22.81   4.5   4.8  0.00  1.22   3.6   1.7   0.0   0.0   0.00   1.02   0.00 0.596 .0172 1.930 5.856 1.506   0.00   0.00   7.35  1.00  1.00  1.00   5.6  0.72  2.00  0.00
 1982  80   166   156   2.5 22.85   4.5   4.8  0.00  1.24   3.6   1.7   0.0   0.0   0.00   0.95   0.00 0.596 .0173 1.930 5.852 1.502   0.00   0.00   6.36  1.00  1.00  1.00   5.6  0.72  2.00  0.00
 1982  81   167   157   3.9 22.90   4.5   4.8  0.00  1.28   3.5   1.8   0.0   0.0   0.00   0.79   0.00 0.596 .0175 1.930 5.845 1.496   0.00   0.00   5.12  1.00  1.00  1.00   5.6  0.72  2.00  0.00
 1982  82   168   158   7.8 22.99   4.5   4.8  0.00  1.31   3.5   2.2   0.1   0.0   0.00   0.20   0.00 0.596 .0178 1.929 5.831 1.483   0.00   0.00   4.50  1.00  1.00  1.00   5.6  0.72  2.00  0.00
 1982  83   169   159   6.6 23.08   4.8   5.1  0.00  1.36   3.7   2.4   0.1   0.0   0.00   0.00   0.00 0.596 .0182 1.928 5.820 1.472   0.00   0.00   3.96  1.00  1.00  1.00   5.5  0.71  1.87  0.26
 1982  84   170   160   3.9 23.13   5.0   5.3  0.00  1.42   3.9   2.5   0.1   0.0   0.00   0.00   0.00 0.596 .0184 1.927 5.813 1.466   0.00   0.00   3.49  1.00  1.00  1.00   5.5  0.71  2.00  0.21
 1982  85   171   161   3.0 23.17   5.2   5.4  0.00  1.47   3.9   2.6   0.1   0.0   0.00   0.00   0.00 0.596 .0185 1.927 5.807 1.461   0.00   0.00   3.17  1.00  1.00  1.00   5.5  0.71  2.00  0.15
 1982  86   172   162   5.6 23.24   5.6   5.8  0.00  1.53   4.3   2.8   0.1   0.0   0.00   0.00   0.00 0.596 .0188 1.926 5.797 1.452   0.00   0.00   2.98  1.00  1.00  1.00   5.5  0.71  1.10  0.40
 1982  87   173   163   6.9 23.32   6.0   6.3  0.00  1.57   4.7   3.1   0.1   0.0   0.00   0.00   0.00 0.596 .0192 1.912 5.646 1.405   0.00   0.00   2.95  0.98  0.98  0.99   5.5  0.71  0.76  0.58
 1982  88   174   164  10.3 23.45   6.4   6.7  0.00  1.59   5.1   3.4   0.1   0.0   0.00   0.00   0.00 0.596 .0198 1.902 5.088 1.328   0.00   0.00   3.01  0.88  0.93  0.99   5.5  0.71  0.42  1.02
 1982  89   175   165  15.0 23.61   6.8   7.1  0.00  1.66   5.4   3.6   0.1   0.0   0.00   0.00   0.00 0.596 .0207 1.877 4.357 1.137   0.00   0.00   2.79  0.76  0.81  0.98   5.5  0.71  0.27  1.55
 1982  90   176   166  10.9 23.71   7.3   7.5  0.00  1.75   5.8   3.8   0.1   0.0   0.00   0.00   0.00 0.596 .0214 1.849 4.122 1.040   0.00   0.00   2.55  0.72  0.75  0.96   5.4  0.71  0.39  1.07
 1982  91   177   167  13.9 23.83   7.7   7.9  0.00  1.83   6.1   4.0   0.1   0.0   0.00   0.00   0.00 0.596 .0224 1.824 3.859 0.941   0.00   0.00   2.38  0.68  0.69  0.95   5.4  0.71  0.33  1.27
 1982  92   178   168  17.0 23.97   8.1   8.3  0.00  1.90   6.4   4.2   0.1   0.0   0.00   0.00   0.00 0.596 .0236 1.806 3.610 0.872   0.00   0.00   2.30  0.64  0.66  0.94   5.4  0.71  0.30  1.41
 1982  93   179   169   7.5 24.02   8.5   8.7  0.00  2.00   6.7   4.4   0.1   0.0   0.00   0.02   0.00 0.602 .0241 1.783 3.652 0.878   0.00   0.00   2.15  0.65  0.67  0.93   5.3  0.71  0.60  0.69
 1982  94   180   170   5.2 24.06   8.9   9.2  0.00  2.10   7.1   4.6   0.1   0.0   0.00   0.02   0.00 0.606 .0246 1.782 3.761 0.904   0.00   0.00   2.08  0.67  0.69  0.93   5.3  0.70  0.86  0.49
 1982  95   181   171   3.6 24.09   9.2   9.5  0.00  2.15   7.3   4.8   0.1   0.0   0.00   0.00   0.00 0.606 .0249 1.791 3.872 0.930   0.00   0.00   2.09  0.69  0.72  0.94   5.3  0.70  1.34  0.31
 1982  96   182   172  -0.8 24.09   9.4   9.6  0.00  2.15   7.5   4.9   0.1   0.0   0.00   0.00   0.00 0.606 .0249 1.797 3.960 0.948   0.00   0.00   2.14  0.70  0.73  0.94   5.3  0.70  2.00  0.17
 1982  97   183   173   3.0 24.12   9.7   9.9  0.00  2.18   7.7   5.1   0.1   0.0   0.00   0.00   0.00 0.606 .0251 1.804 4.055 0.970   0.00   0.00   2.18  0.72  0.75  0.94   5.3  0.70  1.71  0.26
 1982  98   184   174   4.4 24.15  10.1  10.3  0.00  2.25   8.0   5.3   0.1   0.0   0.00   0.00   0.00 0.606 .0255 1.812 4.157 0.993   0.00   0.00   2.16  0.74  0.77  0.95   5.3  0.70  1.11  0.39
 1982  99   185   175   4.1 24.19  10.5  10.7  0.00  2.39   8.3   5.5   0.2   0.0   0.00   0.00   0.00 0.606 .0259 1.819 4.243 1.012   0.00   0.00   2.03  0.76  0.79  0.95   5.3  0.70  0.96  0.45
 1982 100   186   176   8.7 24.27  10.9  11.1  0.00  2.52   8.6   5.7   0.2   0.0   0.00   0.00   0.00 0.606 .0267 1.794 4.133 0.967   0.00   0.00   1.88  0.74  0.77  0.94   5.3  0.70  0.42  1.01
 1982 101   187   177  13.6 24.39  11.3  11.6  0.00  2.64   8.9   5.9   0.2   0.0   0.00   0.00   0.00 0.606 .0281 1.773 3.870 0.874   0.00   0.00   1.77  0.70  0.71  0.93   5.2  0.70  0.27  1.56
 1982 102   188   178  20.2 24.56  11.7  12.0  0.00  2.78   9.2   6.0   0.2   0.0   0.00   0.00   0.00 0.606 .0302 1.752 3.537 0.765   0.00   0.00   1.67  0.64  0.64  0.92   5.2  0.70  0.20  2.05
 1982 103   189   179  16.1 24.68  12.2  12.4  0.00  2.91   9.5   6.2   0.2   0.0   0.00   0.00   0.00 0.606 .0320 1.734 3.362 0.709   0.00   0.00   1.59  0.61  0.60  0.91   5.1  0.70  0.25  1.66
 1982 104   190   180  21.1 24.82  12.6  12.8  0.00  3.04   9.8   6.4   0.2   0.0   0.00   0.00   0.00 0.606 .0345 1.717 3.175 0.650   0.00   0.00   1.51  0.58  0.57  0.90   5.1  0.69  0.21  1.88
 1982 105   191   181  24.2 24.98  13.0  13.2  0.00  3.14  10.0   6.5   0.2   0.0   0.00   0.06   0.00 0.622 .0376 1.706 3.057 0.615   0.00   0.00   1.48  0.57  0.56  0.90   5.0  0.69  0.24  1.68
 1982 106   192   182  18.4 25.10  13.3  13.5  0.00  3.18  10.4   6.8   0.2   0.0   0.00   0.04   0.00 0.635 .0400 1.702 2.981 0.606   0.00   0.00   1.50  0.56  0.57  0.90   5.0  0.69  0.25  1.57
 1982 107   193   183  10.0 25.16  13.7  13.9  0.00  3.33  10.6   6.9   0.2   0.0   0.00   0.02   0.00 0.642 .0413 1.686 2.951 0.591   0.00   0.00   1.42  0.55  0.57  0.89   4.9  0.69  0.30  1.28
 1982 108   194   184  12.2 25.24  14.1  14.3  0.00  3.47  10.8   7.1   0.2   0.0   0.00   0.03   0.00 0.650 .0430 1.673 2.897 0.571   0.00   0.00   1.37  0.54  0.56  0.88   4.9  0.69  0.26  1.45
 1982 109   195   185  15.3 25.33  14.5  14.6  0.00  3.60  11.0   7.2   0.2   0.0   0.00   0.03   0.00 0.661 .0452 1.661 2.823 0.544   0.00   0.00   1.32  0.53  0.55  0.88   4.9  0.68  0.23  1.66
 1982 110   196   186   6.7 25.33  14.9  15.0  0.00  3.75  11.3   7.4   0.2   0.0   0.00   0.02   0.00 0.667 .0462 1.650 2.851 0.547   0.00   0.00   1.27  0.54  0.55  0.87   4.8  0.68  0.40  0.96
 1982 111   197   187   7.0 25.33  15.2  15.4  0.00  3.88  11.5   7.5   0.2   0.0   0.00   0.02   0.00 0.673 .0473 1.640 2.870 0.548   0.00   0.00   1.23  0.55  0.55  0.87   4.8  0.68  0.38  0.99
 1982 112   198   188   8.6 25.33  15.6  15.7  0.00  4.04  11.7   7.7   0.2   0.0   0.00   0.03   0.00 0.681 .0488 1.630 2.856 0.539   0.00   0.00   1.18  0.55  0.55  0.87   4.7  0.68  0.30  1.20
 1982 113   199   189  11.7 25.33  16.0  16.1  0.00  4.18  11.9   7.8   0.3   0.0   0.00   0.03   0.00 0.692 .0508 1.621 2.810 0.518   0.00   0.00   1.14  0.55  0.53  0.86   4.7  0.68  0.24  1.47
 1982 114   200   190  16.4 25.33  16.3  16.4  0.00  4.30  12.1   7.9   0.3   0.0   0.00   0.05   0.00 0.708 .0538 1.614 2.733 0.488   0.00   0.00   1.11  0.54  0.51  0.86   4.6  0.67  0.20  1.77
 1982 115   201   191  13.1 25.33  16.6  16.7  0.00  4.37  12.4   8.1   0.3   0.0   0.00   0.04   0.00 0.720 .0562 1.610 2.701 0.473   0.00   0.00   1.11  0.54  0.50  0.86   4.5  0.67  0.23  1.46
 1982 116   202   192  14.1 30.52  17.0  17.1  0.00  4.53  12.5   8.2   0.3   0.0   0.00   0.04   0.00 0.733 .0589 1.602 2.642 0.448   0.00   0.00   1.07  0.54  0.48  0.86   4.4  0.67  0.20  1.66
 1982 117   203   193  10.6 31.01  17.3  17.4  0.00  4.57  12.8   8.4   0.3   0.0   0.00   0.03   0.00 0.743 .0610 1.599 2.633 0.445   0.00   0.00   1.08  0.54  0.48  0.86   4.4  0.67  0.25  1.27
 1982 118   204   194   8.4 31.41  17.6  17.7  0.00  4.59  13.1   8.5   0.3   0.0   0.00   0.02   0.00 0.751 .0627 1.602 2.652 0.451   0.00   0.00   1.10  0.55  0.49  0.86   4.4  0.66  0.32  1.00
 1982 119   205   195  10.0 31.87  17.9  18.0  0.00  4.63  13.4   8.7   0.3   0.0   0.00   0.03   0.00 0.760 .0647 1.600 2.642 0.448   0.00   0.00   1.11  0.55  0.49  0.86   4.3  0.66  0.26  1.28
 1982 120   206   196  13.9 32.52  18.9  19.0  0.00  4.71  14.3   9.3   0.4   0.0   0.00   0.04   0.00 0.773 .0674 1.601 2.722 0.471   0.00   0.00   1.15  0.58  0.52  0.86   4.2  0.66  0.63  1.57
 1982 121   207   197  16.1 33.28  19.8  19.8  0.00  4.80  15.0   9.7   0.4   0.0   0.00   0.05   0.00 0.788 .0707 1.596 2.743 0.475   0.00   0.00   1.18  0.59  0.53  0.86   4.1  0.65  0.46  1.78
 1982 122   208   198  18.0 34.12  20.4  20.4  0.00  4.91  15.5  10.0   0.4   0.0   0.00   0.05   0.00 0.805 .0745 1.591 2.719 0.459   0.00   0.00   1.17  0.59  0.52  0.86   4.0  0.65  0.33  1.87
 1982 123   209   199  22.0 35.15  20.9  20.9  0.00  5.05  15.8  10.3   0.5   0.0   0.00   0.06   0.00 0.825 .0792 1.584 2.675 0.436   0.00   0.00   1.15  0.60  0.50  0.86   3.9  0.64  0.28  1.96
 1982 124   210   200  24.5 36.29  21.5  21.4  0.00  5.20  16.2  10.5   0.5   0.0   0.00   0.07   0.00 0.848 .0845 1.577 2.640 0.418   0.00   0.00   1.12  0.61  0.49  0.86   3.8  0.64  0.29  1.87
 1982 125   211   201  18.0 37.14  21.9  21.8  0.00  5.23  16.5  10.7   0.5   0.0   0.00   0.05   0.00 0.865 .0886 1.576 2.599 0.415   0.00   0.00   1.13  0.61  0.49  0.86   3.7  0.63  0.23  1.69
 1982 126   212   202  10.9 37.65  22.2  22.1  0.00  5.33  16.8  10.9   0.6   0.0   0.00   0.03   0.00 0.875 .0911 1.572 2.581 0.403   0.00   0.00   1.11  0.61  0.48  0.86   3.6  0.63  0.26  1.41
 1982 127   213   203  14.4 38.32  23.6  23.5  0.00  5.55  17.9  11.5   0.7   0.0   0.00   0.04   0.00 0.889 .0945 1.574 2.661 0.441   0.00   0.00   1.12  0.64  0.53  0.86   3.5  0.63  0.75  1.80
 1982 128   214   204  20.5 39.28  24.5  24.4  0.00  5.75  18.6  11.9   0.8   0.0   0.00   0.06   0.00 0.908 0.099 1.566 2.649 0.434   0.00   0.00   1.10  0.65  0.54  0.86   3.4  0.62  0.43  2.21
 1982 129   215   205  22.5 40.38  25.5  25.3  0.00  5.92  19.4  12.3   0.9   0.0   0.00   0.06   0.00 0.929 0.105 1.559 2.644 0.431   0.00   0.00   1.09  0.67  0.54  0.86   3.2  0.61  0.45  2.12
 1982 130   216   206  22.5 41.56  25.9  25.8  0.00  6.05  19.7  12.3   1.1   0.0   0.00   0.16   0.05 0.929 0.111 1.554 2.673 0.421   0.00   0.00   1.06  0.69  0.55  0.86   3.0  0.60  0.44  1.06
 1982 131   217   207  22.0 42.72  26.7  26.5  0.00  6.25  20.3  12.4   1.5   0.0   0.00   0.16   0.11 0.929 0.117 1.556 2.716 0.459   0.00   0.00   1.04  0.72  0.62  0.86   2.8  0.59  0.68  1.06
 1982 132   218   208  18.9 43.71  27.2  27.0  0.00  6.38  20.7  12.5   1.7   0.0   0.00   0.15   0.15 0.929 0.122 1.569 2.763 0.491   0.00   0.00   1.04  0.75  0.68  0.87   2.6  0.58  0.89  0.62
 1982 133   219   209  20.0 44.77  27.8  27.6  0.00  6.53  21.1  12.5   2.1   0.0   0.00   0.16   0.20 0.929 0.127 1.584 2.809 0.523   0.00   0.00   1.03  0.79  0.74  0.88   2.5  0.57  2.00  0.61
 1982 134   220   210  17.8 45.70  28.4  28.2  0.00  6.68  21.5  12.6   2.4   0.0   0.00   0.14   0.24 0.929 0.132 1.598 2.847 0.548   0.00   0.00   1.02  0.82  0.80  0.89   2.4  0.56  2.00  0.57
 1982 135   221   211  17.8 46.63  29.5  29.3  0.00  6.96  22.3  12.6   3.1   0.0   0.00   0.15   0.28 0.929 0.137 1.614 2.879 0.579   0.00   0.00   0.99  0.85  0.87  0.90   2.2  0.55  1.52  1.06
 1982 136   222   212  19.5 47.66  29.9  29.7  0.00  7.10  22.6  12.6   3.4   0.0   0.00   0.16   0.32 0.929 0.143 1.625 2.905 0.590   0.00   0.00   0.98  0.88  0.91  0.91   2.1  0.54  2.00  0.48
 1982 137   223   213  19.5 48.68  30.5  30.3  0.00  7.28  23.1  12.5   3.8   0.0   0.00   0.17   0.37 0.929 0.148 1.636 2.925 0.598   0.00   0.00   0.96  0.91  0.96  0.92   1.9  0.53  2.00  0.60
 1982 138   224   214  20.3 49.75  31.4  31.2  0.00  7.52  23.7  12.4   4.5   0.0   0.00   0.18   0.41 0.929 0.154 1.647 2.940 0.604   0.00   0.00   0.93  0.94  1.00  0.93   1.8  0.52  2.00  0.85
 1982 139   225   215  23.6 53.77  32.1  31.9  0.00  7.74  24.2  12.3   5.1   0.0   0.00   0.21   0.47 0.929 0.162 1.656 2.949 0.591   0.00   0.00   0.89  0.96  1.00  0.94   1.6  0.51  1.99  0.74
 1982 140   226   216  21.1 57.99  32.3  32.1  0.00  7.85  24.3  12.2   5.4   0.0   0.00   0.15   0.51 0.929 0.168 1.663 2.955 0.580   0.00   0.00   0.87  0.98  1.00  0.94   1.6  0.50  2.00  0.22
 1982 141   227   217  18.0 63.99  32.8  32.6  0.00  7.98  24.6  12.1   5.9   0.0   0.00   0.13   0.54 0.929 0.174 1.670 2.958 0.571   0.00   0.00   0.84  0.99  1.00  0.95   1.5  0.50  2.00  0.48
 1982 142   228   218  16.1 70.32  33.2  32.9  0.00  8.06  24.9  12.0   6.3   0.0   0.00   0.12   0.57 0.929 0.179 1.675 2.952 0.563   0.00   0.00   0.81  1.00  1.00  0.95   1.4  0.49  2.00  0.35
 1982 143   229   219  18.0 71.71  33.7  33.5  0.00  8.13  25.3  11.9   6.9   0.1   0.00   0.13   0.60 0.929 0.185 1.680 2.916 0.554   2.20   0.00   0.78  1.00  1.00  0.96   1.3  0.48  2.00  0.54
 1982 144   230   220  18.7 73.14  33.7  33.5  0.00  8.16  25.3  11.6   6.8   0.3   0.01   0.27   0.64 0.929 0.191 1.684 2.878 0.545   2.20   0.00   0.76  1.00  1.00  0.96   1.3  0.48  2.00  0.00
 1982 145   231   221  20.0 74.68  33.7  33.5  0.00  8.19  25.3  11.3   6.6   0.9   0.04   0.14   0.68 0.929 0.197 1.688 2.838 0.535   2.20   0.00   0.73  1.00  1.00  0.97   1.3  0.48  2.00  0.02
 1982 146   232   222  16.4 75.94  34.0  33.8  0.00  8.23  25.5  11.1   6.5   1.6   0.06   0.11   0.71 0.929 0.202 1.691 2.806 0.526   2.20   0.00   0.68  1.00  1.00  0.97   1.3  0.47  2.00  0.27
 1982 147   233   223  18.4 77.35  34.7  34.4  0.00  8.28  26.1  10.8   6.4   2.7   0.10   0.13   0.74 0.929 0.208 1.694 2.769 0.517   2.20   0.00   0.64  1.00  1.00  0.98   1.2  0.47  2.00  0.66
 1982 148   234   224  23.3 79.15  35.9  35.6  0.00  8.31  27.3  10.6   6.3   4.3   0.16   0.16   0.79 0.929 0.215 1.697 2.722 0.506   2.20   0.00   0.62  1.00  1.00  0.98   1.2  0.47  2.00  1.18
 1982 149   235   225  21.4 80.20  37.2  36.9  0.00  8.35  28.5  10.3   6.2   6.1   0.21   0.14   0.83 0.929 0.222 1.699 2.675 0.498   2.20   0.00   0.59  1.00  1.00  0.98   1.2  0.46  1.42  1.30
 1982 150   236   226  20.5 80.61  38.4  38.2  0.00  8.18  30.0  10.0   6.1   8.0   0.27   0.05   0.84 0.929 0.229 1.661 2.627 0.494   2.20   0.00   0.58  1.00  1.00  0.96   1.2  0.46  0.87  1.49
 1982 151   237   227  17.8 80.96  38.9  38.6  0.00  7.80  30.8   9.5   6.0   9.7   0.32   0.04   0.85 0.929 0.234 1.583 2.551 0.490   2.20   0.00   0.55  0.99  1.00  0.92   1.1  0.46  0.36  1.35
 1982 152   238   228  12.8 81.22  39.9  39.6  0.00  7.88  31.8   9.5   6.0  10.7   0.34   0.03   0.86 0.929 0.238 1.591 2.553 0.488   2.20   0.00   0.53  1.00  1.00  0.92   1.1  0.46  1.29  1.02
 1982 153   239   229  15.2 81.52  40.3  40.0  0.00  7.57  32.5   9.0   5.9  12.1   0.37   0.20   0.92 0.929 0.243 1.527 2.446 0.483   2.20   0.00   0.51  0.97  1.00  0.89   1.1  0.46  0.28  1.37
 1982 154   240   230  15.0 81.82  41.5  41.2  0.00  7.58  33.6   8.8   5.9  13.4   0.40   0.22   0.99 0.929 0.248 1.528 2.447 0.482   2.20   0.00   0.51  0.99  1.00  0.89   1.1  0.46  0.95  1.22
 1982 155   241   231  17.0 82.15  42.3  42.0  0.00  7.33  34.6   8.4   5.8  15.0   0.43   0.22   1.06 0.929 0.253 1.476 2.389 0.478   2.20   0.00   0.49  0.98  1.00  0.86   1.1  0.46  0.55  1.45
 1982 156   242   232  17.8 82.50  42.6  42.3  0.00  7.13  35.1   7.6   5.7  16.7   0.48   0.24   1.14 0.929 0.259 1.433 2.217 0.471   2.20   0.00   0.45  0.92  0.99  0.83   1.0  0.46  0.19  1.56
 1982 157   243   233  25.5 83.01  42.9  42.6  0.00  6.98  35.6   6.4   5.6  19.1   0.54   0.23   1.23 0.929 0.267 1.399 1.915 0.458   2.20   0.00   0.41  0.82  0.97  0.82   1.0  0.46  0.16  2.33
 1982 158   244   234  20.2 83.41  43.7  43.4  0.00  6.85  36.5   5.6   5.5  21.0   0.58   0.26   1.35 0.929 0.274 1.372 1.761 0.451   2.20   0.00   0.38  0.77  0.97  0.80   1.0  0.46  0.40  1.91
 1982 159   245   235  25.8 83.92  44.6  44.3  0.00  6.75  37.5   4.7   5.4  23.5   0.63   0.19   1.44 0.929 0.282 1.351 1.529 0.441   2.20   0.00   0.34  0.69  0.96  0.79   0.9  0.45  0.36  2.42
 1982 160   246   236  22.8 84.37  45.5  45.2  0.00  6.67  38.5   4.0   5.3  25.6   0.66   0.19   1.57 0.929 0.289 1.333 1.343 0.433   2.20   0.00   0.32  0.62  0.95  0.78   0.9  0.45  0.43  2.25
 1982 161   247   237  16.4 84.69  45.9  45.6  0.00  6.61  39.0   3.4   5.2  26.9   0.69   0.13   1.67 0.929 0.294 1.319 1.195 0.426   2.18   0.00   0.30  0.56  0.94  0.77   0.9  0.45  0.24  1.66
 1982 162   248   238  18.0 85.05  46.9  46.5  0.00  6.56  39.9   2.9   5.1  28.6   0.72   0.13   1.80 0.929 0.300 1.310 1.076 0.421   2.17   0.00   0.28  0.51  0.94  0.77   0.9  0.45  0.49  1.89
 1982 163   249   239  19.8 85.44  47.3  46.9  0.00  6.52  40.4   2.5   5.1  29.6   0.73   0.11   1.93 0.929 0.306 1.302 0.980 0.417   2.11   0.00   0.27  0.48  0.94  0.76   0.8  0.45  0.19  2.07
 1982 164   250   240  20.9 85.86  47.7  47.3  0.00  6.49  40.8   2.1   5.0  30.4   0.74   0.09   2.07 0.929 0.313 1.295 0.904 0.413   2.04   0.00   0.27  0.45  0.94  0.76   0.8  0.45  0.19  2.19
 1982 165   251   241  23.9 86.33  47.9  47.6  0.00  6.45  41.1   1.9   5.0  31.0   0.75   0.07   2.21 0.929 0.321 1.290 0.844 0.411   1.95   0.00   0.26  0.43  0.94  0.76   0.8  0.44  0.11  2.48
 1982 166   252   242  22.5 86.77  48.8  48.4  0.00  6.43  42.0   1.6   5.0  32.2   0.77   0.06   2.37 0.929 0.328 1.286 0.795 0.409   1.90   0.00   0.26  0.42  0.95  0.76   0.7  0.44  0.37  2.35
 1982 167   253   243  18.6 87.14  50.2  49.8  0.00  6.41  43.4   1.4   5.0  33.8   0.78   0.05   2.51 0.929 0.334 1.282 0.756 0.407   1.91   0.00   0.26  0.41  0.95  0.76   0.7  0.44  0.71  1.98
 1982 168   254   244  21.1 87.56  50.4  50.0  0.00  6.39  43.6   1.3   4.9  34.1   0.78   0.03   2.63 0.929 0.340 1.279 0.725 0.405   1.90   0.00   0.26  0.40  0.96  0.76   0.7  0.44  0.08  2.22
 1982 169   255   245  21.1 87.98  50.9  50.5  0.00  6.37  44.1   1.1   4.9  34.7   0.79   0.03   2.76 0.929 0.347 1.276 0.700 0.404   1.90   0.00   0.26  0.40  0.96  0.76   0.6  0.43  0.24  2.22
 1982 170   256   246  19.2 88.36  51.6  51.2  0.00  6.35  44.8   1.0   4.9  35.5   0.79   0.02   2.89 0.929 0.353 1.274 0.680 0.403   1.90   0.00   0.26  0.40  0.97  0.75   0.6  0.43  0.34  2.02
 1982 171   257   247  22.8 88.81  52.0  51.5  0.00  6.34  45.2   0.9   4.9  36.0   0.80   0.02   3.04 0.929 0.360 1.272 0.658 0.403   1.90   0.00   0.26  0.40  0.98  0.75   0.6  0.43  0.16  2.35
 1982 172   258   248  22.2 89.25  52.3  51.9  0.00  6.32  45.6   0.8   4.8  36.4   0.80   0.01   3.20 0.929 0.367 1.270 0.637 0.402   1.90   0.00   0.26  0.40  0.99  0.75   0.6  0.43  0.16  2.29
 1982 173   259   249  20.8 89.66  52.8  52.3  0.00  6.31  46.0   0.6   4.8  36.9   0.80   0.01   3.35 0.929 0.374 1.269 0.616 0.401   1.90   0.00   0.26  0.40  0.99  0.75   0.5  0.42  0.20  2.15
 1982 174   260   250  21.7 90.23  54.0  53.6  0.00  6.29  47.3   0.5   4.8  38.2   0.81   0.00   3.50 0.929 0.381 1.267 0.600 0.400   1.90   0.00   0.26  0.40  1.00  0.75   0.5  0.42  0.57  2.22

*DSSAT Cropping System Model Ver. 4.8.5.000 -release  SEP 11, 2025 22:39:39

*RUN   2        : DRYLAND  - 60 KG N/HA     CSCER048 KSAS8101    2
 MODEL          : CSCER048 - Wheat
 EXPERIMENT     : KSAS8101 WH N RESPONSE,KANSAS STATE  3FE(N)*2IR  (DSSAT3)
 DATA PATH      :
 TREATMENT  2   : DRYLAND  - 60 KG N/HA     CSCER048
  
@YEAR DOY   DAS   DAP TMEAN  GSTD  NUAC  TNAD SDNAD  RNAD  CNAD  LNAD  SNAD  HNAD   HIND  RSNAD  SNNPD SNN0D SNN1D  RN%D  LN%D  SN%D   HN%D  SDN%D   VN%D LN%RD SN%RD RN%RD  VCN%  VMN% NUPRD NDEMD
 1981 289    10     0  12.8  0.00   0.0   0.9  0.87  0.00   0.0   0.0   0.0   0.0   0.00   0.00   0.00     0     0 0.000 0.000 0.000   0.00   1.90   0.00  0.00  0.00  0.00   0.0  0.00  0.00  0.00
 1981 290    11     1  16.1  5.58   0.0   0.9  0.87  0.00   0.0   0.0   0.0   0.0   0.00   0.00   0.00     0     0 0.000 0.000 0.000   0.00   1.90   0.00  0.00  0.00  0.00   0.0  0.00  0.00  0.00
 1981 291    12     2   9.4  6.54   0.0   0.9  0.86  0.01   0.0   0.0   0.0   0.0   0.00   0.00   0.00     0     0 1.994 0.000 0.000   0.00   1.90   0.00  0.00  0.00  1.00   0.0  0.00  0.00  0.00
 1981 292    13     3  12.2  7.81   0.0   0.9  0.86  0.03   0.0   0.0   0.0   0.0   0.00   0.00   0.00     0 .0000 1.985 0.000 0.000   0.00   1.93   0.00  0.00  0.00  1.00   0.0  0.00  1.99  0.01
 1981 293    14     4  17.5  9.69   0.0   0.9  0.85  0.06   0.0   0.0   0.0   0.0   0.00   0.00   0.00     0 .0000 1.972 0.000 0.000   0.00   1.98   0.00  0.00  0.00  1.00   0.0  0.00  2.00  0.02
 1981 294    15     5  11.7 10.00   0.0   0.9  0.85  0.08   0.0   0.0   0.0   0.0   0.00   0.00   0.00     0 .0001 1.970 0.000 0.000   0.00   2.01   0.00  0.00  0.00  1.00   0.0  0.00  2.00  0.01
 1981 295    16     6   6.2 10.13   0.1   1.0  0.83  0.09   0.1   0.0   0.0   0.0   0.00   0.00   0.00     0 .0001 1.967 6.362 0.000   0.00   2.05   6.40  1.00  0.00  1.00   6.4  0.75  1.62  0.06
 1981 296    17     7   1.9 10.17   0.1   1.0  0.83  0.09   0.1   0.0   0.0   0.0   0.00  -0.00   0.00     0 .0001 1.967 6.362 0.000   0.00   2.05   5.75  1.00  0.00  1.00   6.4  0.75  2.00  0.01
 1981 297    18     8   6.1 10.30   0.2   1.0  0.82  0.10   0.1   0.1   0.0   0.0   0.00   0.00   0.00     0 .0001 1.967 6.362 1.735   0.00   2.09   5.74  1.00  0.88  1.00   6.4  0.75  1.52  0.06
 1981 298    19     9   8.4 10.47   0.3   1.1  0.78  0.11   0.2   0.2   0.0   0.0   0.00   0.00   0.00     0 .0001 1.967 6.361 1.489   0.00   2.12   5.68  1.00  0.76  1.00   6.3  0.75  0.87  0.10
 1981 299    20    10   7.8 10.64   0.3   1.2  0.76  0.12   0.3   0.2   0.0   0.0   0.00   0.00   0.00     0 .0002 1.967 6.359 1.532   0.00   2.17   5.01  1.00  0.78  1.00   6.3  0.75  1.18  0.09
 1981 300    21    11  13.7 10.93   0.4   1.3  0.62  0.14   0.6   0.4   0.0   0.0   0.00   0.00   0.00     0 .0002 1.967 6.357 1.181   0.00   2.01   4.82  1.00  0.60  1.00   6.3  0.75  0.52  0.19
 1981 301    22    12  16.2 11.27   0.5   1.4  0.41  0.16   0.9   0.6   0.0   0.0   0.00  -0.00   0.00     0 .0003 1.967 6.354 0.956   0.00   1.60   4.64  1.00  0.49  1.00   6.3  0.75  0.41  0.25
 1981 302    23    13  17.5 11.63   0.7   1.5  0.16  0.18   1.2   0.8   0.0   0.0   0.00   0.00   0.00     0 .0004 1.966 6.351 0.834   0.00   0.83   4.41  1.00  0.43  1.00   6.3  0.75  0.38  0.28
 1981 303    24    14  16.1 11.97   0.8   1.6  0.00  0.20   1.4   1.0   0.0   0.0   0.00   0.00   0.00     0 .0005 1.956 6.161 0.812   0.00   0.00   4.49  0.97  0.42  0.99   6.3  0.75  0.40  0.29
 1981 304    25    15  13.9 12.13   0.9   1.8  0.00  0.21   1.6   1.0   0.0   0.0   0.00   0.00   0.00     0 .0006 1.916 5.996 0.898   0.00   0.00   4.46  0.94  0.46  0.97   6.3  0.75  0.69  0.18
 1981 305    26    16  12.2 12.26   1.0   1.9  0.00  0.22   1.6   1.1   0.0   0.0   0.00   0.00   0.00     0 .0007 1.887 5.905 0.971   0.00   0.00   4.45  0.93  0.50  0.96   6.3  0.75  0.72  0.15
 1981 306    27    17  10.2 12.37   1.1   2.0  0.00  0.23   1.8   1.2   0.0   0.0   0.00   0.00   0.00     0 .0008 1.895 5.950 1.074   0.00   0.00   4.54  0.94  0.55  0.96   6.3  0.75  2.00  0.12
 1981 307    28    18  11.4 12.49   1.3   2.1  0.00  0.25   1.9   1.3   0.0   0.0   0.00   0.00   0.00     0 .0009 1.902 5.992 1.187   0.00   0.00   4.46  0.95  0.61  0.97   6.3  0.75  2.00  0.14
 1981 308    29    19  10.2 12.60   1.4   2.3  0.00  0.26   2.0   1.3   0.0   0.0   0.00   0.00   0.00     0 .0010 1.908 6.026 1.271   0.00   0.00   4.51  0.95  0.65  0.97   6.3  0.75  2.00  0.12
 1981 309    30    20  10.6 12.71   1.5   2.4  0.00  0.29   2.1   1.4   0.0   0.0   0.00   0.00   0.00     0 .0011 1.916 6.057 1.352   0.00   0.00   4.10  0.96  0.70  0.97   6.3  0.75  2.00  0.15
 1981 310    31    21   6.7 12.78   1.6   2.5  0.00  0.32   2.2   1.4   0.0   0.0   0.00   0.00   0.00     0 .0012 1.923 6.076 1.400   0.00   0.00   3.64  0.96  0.72  0.98   6.3  0.75  2.00  0.08
 1981 311    32    22   9.7 12.88   1.7   2.6  0.00  0.34   2.3   1.5   0.0   0.0   0.00   0.00   0.00     0 .0013 1.928 6.099 1.459   0.00   0.00   3.47  0.96  0.75  0.98   6.3  0.75  2.00  0.13
 1981 312    33    23  10.9 13.00   1.9   2.7  0.00  0.35   2.4   1.6   0.0   0.0   0.00   0.00   0.00     0 .0014 1.931 6.121 1.493   0.00   0.00   3.62  0.97  0.77  0.98   6.3  0.75  2.00  0.12
 1981 313    34    24   2.5 13.02   1.9   2.8  0.00  0.36   2.4   1.6   0.0   0.0   0.00   0.00   0.00     0 .0015 1.934 6.132 1.518   0.00   0.00   3.41  0.97  0.78  0.98   6.3  0.75  2.00  0.03
 1981 314    35    25   5.6 13.08   2.0   2.8  0.00  0.40   2.4   1.6   0.0   0.0   0.00   0.00   0.00     0 .0015 1.938 6.145 1.549   0.00   0.00   3.10  0.97  0.80  0.99   6.3  0.75  2.00  0.08
 1981 315    36    26   7.5 13.16   2.1   2.9  0.00  0.43   2.5   1.7   0.0   0.0   0.00   0.00   0.00     0 .0017 1.941 6.159 1.585   0.00   0.00   2.90  0.97  0.82  0.99   6.3  0.75  2.00  0.11
 1981 316    37    27  10.9 13.27   2.2   3.1  0.00  0.46   2.7   1.8   0.0   0.0   0.00   0.00   0.00     0 .0018 1.944 6.175 1.630   0.00   0.00   2.80  0.98  0.85  0.99   6.3  0.75  2.00  0.17
 1981 317    38    28  10.6 13.38   2.4   3.3  0.00  0.49   2.8   1.9   0.0   0.0   0.00   0.00   0.00     0 .0020 1.947 6.189 1.667   0.00   0.00   2.70  0.98  0.87  0.99   6.3  0.75  2.00  0.17
 1981 318    39    29  13.0 13.52   2.6   3.5  0.00  0.52   3.0   2.0   0.0   0.0   0.00   0.00   0.00     0 .0023 1.949 6.202 1.703   0.00   0.00   2.70  0.98  0.89  0.99   6.3  0.74  2.00  0.19
 1981 319    40    30  15.0 13.68   2.8   3.7  0.00  0.55   3.2   2.1   0.0   0.0   0.00   0.00   0.00     0 .0025 1.950 6.213 1.735   0.00   0.00   2.70  0.99  0.91  0.99   6.3  0.74  2.00  0.22
 1981 320    41    31  17.5 13.86   3.1   4.0  0.00  0.58   3.4   2.3   0.0   0.0   0.00   0.00   0.00     0 .0029 1.952 6.224 1.763   0.00   0.00   2.66  0.99  0.92  0.99   6.3  0.74  2.00  0.27
 1981 321    42    32  12.8 14.00   3.3   4.2  0.00  0.62   3.6   2.4   0.0   0.0   0.00   0.00   0.00     0 .0032 1.954 6.231 1.782   0.00   0.00   2.59  0.99  0.94  1.00   6.3  0.74  2.00  0.21
 1981 322    43    33  14.1 14.15   3.5   4.4  0.00  0.65   3.8   2.5   0.0   0.0   0.00   0.00   0.00     0 .0035 1.955 6.237 1.799   0.00   0.00   2.61  0.99  0.95  1.00   6.3  0.74  2.00  0.24
 1981 323    44    34   4.1 14.19   3.6   4.4  0.00  0.66   3.8   2.5   0.0   0.0   0.00   0.02   0.00 .0033 .0036 1.955 6.240 1.805   0.00   0.00   2.59  0.99  0.95  1.00   6.3  0.74  2.00  0.04
 1981 324    45    35   0.0 14.19   3.6   4.4  0.00  0.66   3.8   2.5   0.0   0.0   0.00   0.02   0.00 .0033 .0036 1.956 6.243 1.810   0.00   0.00   2.59  0.99  0.95  1.00   6.3  0.74  2.00  0.00
 1981 325    46    36   2.5 14.22   3.6   4.5  0.00  0.68   3.8   2.5   0.0   0.0   0.00   0.01   0.00 .0052 .0037 1.956 6.245 1.815   0.00   0.00   2.49  0.99  0.96  1.00   6.3  0.74  2.00  0.01
 1981 326    47    37   7.0 14.29   3.7   4.5  0.00  0.71   3.8   2.5   0.0   0.0   0.00   0.04   0.00 .0107 .0039 1.957 6.248 1.822   0.00   0.00   2.42  0.99  0.96  1.00   6.2  0.74  2.00  0.09
 1981 327    48    38  10.6 14.40   3.8   4.7  0.00  0.74   3.9   2.6   0.0   0.0   0.00   0.06   0.00 .0190 .0041 1.958 6.251 1.831   0.00   0.00   2.35  1.00  0.97  1.00   6.2  0.74  2.00  0.16
 1981 328    49    39   6.4 14.47   3.9   4.7  0.00  0.78   3.9   2.6   0.0   0.0   0.00   0.04   0.00 .0241 .0043 1.958 6.253 1.835   0.00   0.00   2.23  1.00  0.97  1.00   6.2  0.74  2.00  0.04
 1981 329    50    40  12.2 14.60   4.1   4.9  0.00  0.81   4.1   2.7   0.0   0.0   0.00   0.07   0.00 .0337 .0047 1.959 6.256 1.842   0.00   0.00   2.20  1.00  0.98  1.00   6.2  0.74  2.00  0.18
 1981 330    51    41   6.7 14.67   4.1   4.9  0.00  0.84   4.1   2.7   0.0   0.0   0.00   0.04   0.00 .0390 .0049 1.959 6.257 1.845   0.00   0.00   2.12  1.00  0.98  1.00   6.2  0.74  2.00  0.02
 1981 331    52    42  -0.8 14.67   4.1   4.9  0.00  0.84   4.1   2.7   0.0   0.0   0.00   0.04   0.00 .0390 .0049 1.959 6.257 1.847   0.00   0.00   2.12  1.00  0.98  1.00   6.2  0.74  2.00  0.00
 1981 332    53    43   2.5 14.69   4.1   4.9  0.00  0.85   4.1   2.7   0.0   0.0   0.00   0.03   0.00 .0409 .0049 1.959 6.258 1.849   0.00   0.00   2.08  1.00  0.98  1.00   6.2  0.74  2.00  0.00
 1981 333    54    44   3.0 14.73   4.1   4.9  0.00  0.86   4.0   2.7   0.0   0.0   0.00   0.02   0.00 .0433 .0050 1.959 6.258 1.850   0.00   0.00   2.04  1.00  0.99  1.00   6.2  0.74  2.00  0.00
 1981 334    55    45   5.9 14.79   4.1   4.9  0.00  0.87   4.1   2.7   0.0   0.0   0.00   0.03   0.00 .0480 .0052 1.960 6.259 1.852   0.00   0.00   2.05  1.00  0.99  1.00   6.2  0.74  2.00  0.04
 1981 335    56    46   2.2 14.81   4.1   4.9  0.00  0.87   4.1   2.7   0.0   0.0   0.00   0.03   0.00 .0497 .0053 1.960 6.259 1.853   0.00   0.00   2.04  1.00  0.99  1.00   6.2  0.74  2.00  0.00
 1981 336    57    47   3.6 14.85   4.1   4.9  0.00  0.90   4.1   2.7   0.0   0.0   0.00   0.02   0.00 .0526 .0054 1.960 6.259 1.855   0.00   0.00   1.97  1.00  0.99  1.00   6.2  0.74  2.00  0.01
 1981 337    58    48   4.5 14.90   4.2   5.0  0.00  0.94   4.1   2.7   0.0   0.0   0.00   0.03   0.00 .0561 .0056 1.960 6.256 1.856   0.00   0.00   1.88  1.00  0.99  1.00   6.2  0.74  2.00  0.05
 1981 338    59    49   3.9 14.94   4.2   5.0  0.00  0.97   4.1   2.7   0.0   0.0   0.00   0.02   0.00 .0592 .0057 1.959 6.254 1.857   0.00   0.00   1.81  1.00  0.99  1.00   6.2  0.74  2.00  0.03
 1981 339    60    50   3.9 14.98   4.2   5.0  0.00  0.98   4.1   2.7   0.0   0.0   0.00   0.02   0.00 .0623 .0058 1.959 6.252 1.857   0.00   0.00   1.79  1.00  1.00  1.00   6.2  0.74  2.00  0.02
 1981 340    61    51   8.9 15.07   4.4   5.2  0.00  1.01   4.2   2.8   0.0   0.0   0.00   0.05   0.00 .0693 .0062 1.959 6.246 1.858   0.00   0.00   1.79  1.00  1.00  1.00   6.2  0.74  2.00  0.17
 1981 341    62    52  11.7 15.19   4.7   5.4  0.00  1.05   4.4   2.9   0.0   0.0   0.00   0.10   0.00 .0826 .0066 1.958 6.238 1.853   0.00   0.00   1.80  1.00  1.00  1.00   6.2  0.74  2.00  0.26
 1981 342    63    53   3.7 15.23   4.7   5.4  0.00  1.07   4.4   2.9   0.0   0.0   0.00   0.08   0.00 .0868 .0068 1.958 6.236 1.851   0.00   0.00   1.74  1.00  1.00  1.00   6.2  0.74  2.00  0.00
 1981 343    64    54   2.2 15.26   4.7   5.4  0.00  1.09   4.3   2.9   0.0   0.0   0.00   0.07   0.00 .0893 .0068 1.958 6.234 1.849   0.00   0.00   1.70  1.00  1.00  1.00   6.2  0.74  2.00  0.00
 1981 344    65    55  -0.3 15.26   4.7   5.4  0.00  1.09   4.3   2.9   0.0   0.0   0.00   0.07   0.00 .0893 .0068 1.958 6.234 1.849   0.00   0.00   1.70  1.00  1.00  1.00   6.2  0.74  2.00  0.00
 1981 345    66    56   2.5 15.28   4.7   5.4  0.00  1.10   4.3   2.9   0.0   0.0   0.00   0.07   0.00 .0922 .0070 1.958 6.232 1.848   0.00   0.00   1.69  1.00  1.00  1.00   6.2  0.74  2.00  0.00
 1981 346    67    57   2.8 15.31   4.7   5.4  0.00  1.10   4.3   2.8   0.0   0.0   0.00   0.07   0.00 .0954 .0071 1.958 6.230 1.846   0.00   0.00   1.68  1.00  1.00  1.00   6.2  0.74  2.00  0.00
 1981 347    68    58   2.5 15.34   4.7   5.4  0.00  1.10   4.3   2.8   0.0   0.0   0.00   0.07   0.00 .0982 .0072 1.958 6.228 1.844   0.00   0.00   1.68  1.00  1.00  1.00   6.2  0.74  2.00  0.00
 1981 348    69    59   0.5 15.34   4.7   5.4  0.00  1.11   4.3   2.8   0.0   0.0   0.00   0.07   0.00 .0989 .0072 1.957 6.228 1.844   0.00   0.00   1.67  1.00  1.00  1.00   6.2  0.74  2.00  0.00
 1981 349    70    60   0.0 15.34   4.7   5.4  0.00  1.11   4.3   2.8   0.0   0.0   0.00   0.07   0.00 .0989 .0072 1.957 6.228 1.844   0.00   0.00   1.67  1.00  1.00  1.00   6.2  0.74  2.00  0.00
 1981 350    71    61  -4.7 15.34   4.7   5.4  0.00  1.11   4.3   2.8   0.0   0.0   0.00   0.07   0.00 .0989 .0072 1.957 6.228 1.844   0.00   0.00   1.67  1.00  1.00  1.00   6.2  0.74  2.00  0.00
 1981 351    72    62 -12.5 15.34   4.7   5.2  0.00  1.11   4.1   1.4   0.0   0.0   0.00   1.94   0.00 0.351 .0072 1.957 6.228 1.844   0.00   0.00   3.13  1.00  1.00  1.00   6.1  0.74  2.00  0.00
 1981 352    73    63 -13.6 15.34   4.7   5.0  0.00  1.11   3.9   0.4   0.0   0.0   0.00   3.28   0.00 0.533 .0072 1.957 6.228 1.844   0.00   0.00  10.50  1.00  1.00  1.00   5.9  0.73  2.00  0.00
 1981 353    74    64 -11.4 15.34   4.7   5.0  0.00  1.11   3.9   0.3   0.0   0.0   0.00   3.43   0.00 0.552 .0072 1.957 6.228 1.844   0.00   0.00  14.37  1.00  1.00  1.00   5.7  0.73  2.00  0.00
 1981 354    75    65  -4.2 15.34   4.7   5.0  0.00  1.11   3.9   0.3   0.0   0.0   0.00   3.43   0.00 0.552 .0072 1.957 6.228 1.844   0.00   0.00  14.37  1.00  1.00  1.00   5.7  0.73  2.00  0.00
 1981 355    76    66   2.0 15.36   4.7   5.0  0.00  1.11   3.9   0.3   0.0   0.0   0.00   3.42   0.00 0.552 .0073 1.957 6.226 1.842   0.00   0.00  14.33  1.00  1.00  1.00   5.7  0.73  2.00  0.00
 1981 356    77    67   1.7 15.38   4.7   5.0  0.00  1.11   3.9   0.3   0.0   0.0   0.00   3.41   0.00 0.552 .0073 1.957 6.225 1.841   0.00   0.00  14.28  1.00  1.00  1.00   5.7  0.73  2.00  0.00
 1981 357    78    68  -1.1 15.38   4.7   5.0  0.00  1.11   3.9   0.3   0.0   0.0   0.00   3.41   0.00 0.552 .0073 1.957 6.225 1.841   0.00   0.00  14.28  1.00  1.00  1.00   5.7  0.73  2.00  0.00
 1981 358    79    69  -0.3 15.38   4.7   5.0  0.00  1.11   3.9   0.3   0.0   0.0   0.00   3.41   0.00 0.552 .0073 1.957 6.225 1.841   0.00   0.00  14.28  1.00  1.00  1.00   5.7  0.73  2.00  0.00
 1981 359    80    70   1.6 15.40   4.7   5.0  0.00  1.11   3.9   0.3   0.0   0.0   0.00   3.40   0.00 0.552 .0074 1.957 6.223 1.839   0.00   0.00  14.13  1.00  1.00  1.00   5.7  0.73  2.00  0.00
 1981 360    81    71  -1.7 15.40   4.7   5.0  0.00  1.11   3.9   0.3   0.0   0.0   0.00   3.40   0.00 0.552 .0074 1.957 6.223 1.839   0.00   0.00  14.13  1.00  1.00  1.00   5.7  0.73  2.00  0.00
 1981 361    82    72  -3.1 15.40   4.7   5.0  0.00  1.11   3.9   0.3   0.0   0.0   0.00   3.40   0.00 0.552 .0074 1.957 6.223 1.839   0.00   0.00  14.13  1.00  1.00  1.00   5.7  0.73  2.00  0.00
 1981 362    83    73  -4.4 15.40   4.7   5.0  0.00  1.11   3.9   0.3   0.0   0.0   0.00   3.40   0.00 0.552 .0074 1.957 6.223 1.839   0.00   0.00  14.13  1.00  1.00  1.00   5.7  0.73  2.00  0.00
 1981 363    84    74  -3.6 15.40   4.7   5.0  0.00  1.11   3.9   0.3   0.0   0.0   0.00   3.40   0.00 0.552 .0074 1.957 6.223 1.839   0.00   0.00  14.13  1.00  1.00  1.00   5.7  0.73  2.00  0.00
 1981 364    85    75   1.7 15.42   4.7   5.0  0.00  1.11   3.9   0.3   0.0   0.0   0.00   3.39   0.00 0.552 .0075 1.957 6.222 1.838   0.00   0.00  13.96  1.00  1.00  1.00   5.7  0.73  2.00  0.00
 1981 365    86    76   0.0 15.42   4.7   5.0  0.00  1.11   3.9   0.3   0.0   0.0   0.00   3.39   0.00 0.552 .0075 1.957 6.222 1.838   0.00   0.00  13.96  1.00  1.00  1.00   5.7  0.73  2.00  0.00
 1982   1    87    77  -6.1 15.42   4.7   5.0  0.00  1.11   3.9   0.3   0.0   0.0   0.00   3.39   0.00 0.552 .0075 1.957 6.222 1.838   0.00   0.00  13.96  1.00  1.00  1.00   5.7  0.73  2.00  0.00
 1982   2    88    78   0.8 15.43   4.7   5.0  0.00  1.11   3.9   0.3   0.0   0.0   0.00   3.39   0.00 0.552 .0075 1.957 6.221 1.837   0.00   0.00  13.95  1.00  1.00  1.00   5.7  0.73  2.00  0.00
 1982   3    89    79  -6.3 15.43   4.7   5.0  0.00  1.11   3.9   0.3   0.0   0.0   0.00   3.39   0.00 0.552 .0075 1.957 6.221 1.837   0.00   0.00  13.95  1.00  1.00  1.00   5.7  0.73  2.00  0.00
 1982   4    90    80  -6.1 15.43   4.7   5.0  0.00  1.11   3.9   0.3   0.0   0.0   0.00   3.39   0.00 0.552 .0075 1.957 6.221 1.837   0.00   0.00  13.95  1.00  1.00  1.00   5.7  0.73  2.00  0.00
 1982   5    91    81  -1.6 15.43   4.7   5.0  0.00  1.11   3.9   0.3   0.0   0.0   0.00   3.39   0.00 0.552 .0075 1.957 6.221 1.837   0.00   0.00  13.95  1.00  1.00  1.00   5.7  0.73  2.00  0.00
 1982   6    92    82 -10.9 15.43   4.7   5.0  0.00  1.11   3.9   0.3   0.0   0.0   0.00   3.46   0.00 0.562 .0075 1.957 6.221 1.837   0.00   0.00  16.66  1.00  1.00  1.00   5.7  0.72  2.00  0.00
 1982   7    93    83 -11.4 15.43   4.7   5.0  0.00  1.11   3.8   0.2   0.0   0.0   0.00   3.55   0.00 0.575 .0075 1.957 6.221 1.837   0.00   0.00  22.72  1.00  1.00  1.00   5.5  0.72  2.00  0.00
 1982   8    94    84  -2.8 15.43   4.7   5.0  0.00  1.11   3.8   0.2   0.0   0.0   0.00   3.55   0.00 0.575 .0075 1.957 6.221 1.837   0.00   0.00  22.72  1.00  1.00  1.00   5.5  0.72  2.00  0.00
 1982   9    95    85  -8.4 15.43   4.7   5.0  0.00  1.11   3.8   0.2   0.0   0.0   0.00   3.55   0.00 0.575 .0075 1.957 6.221 1.837   0.00   0.00  22.72  1.00  1.00  1.00   5.5  0.72  2.00  0.00
 1982  10    96    86 -18.6 15.43   4.7   4.9  0.00  1.11   3.8   0.0   0.0   0.0   0.00   3.78   0.00 0.605 .0075 1.957 6.221 1.837   0.00   0.00 170.57  1.00  1.00  1.00   3.1  0.64  2.00  0.00
 1982  11    97    87 -13.4 15.43   4.7   4.9  0.00  1.11   3.8   0.0   0.0   0.0   0.00   3.78   0.00 0.605 .0075 1.957 6.221 1.837   0.00   0.00 170.57  1.00  1.00  1.00   3.1  0.64  2.00  0.00
 1982  12    98    88  -9.1 15.43   4.7   4.9  0.00  1.11   3.8   0.0   0.0   0.0   0.00   3.78   0.00 0.605 .0075 1.957 6.221 1.837   0.00   0.00 170.57  1.00  1.00  1.00   3.1  0.64  2.00  0.00
 1982  13    99    89 -14.5 15.43   4.7   4.9  0.00  1.11   3.8   0.0   0.0   0.0   0.00   3.78   0.00 0.605 .0075 1.957 6.221 1.837   0.00   0.00 170.57  1.00  1.00  1.00   3.1  0.64  2.00  0.00
 1982  14   100    90  -3.0 15.43   4.7   4.9  0.00  1.11   3.8   0.0   0.0   0.0   0.00   3.78   0.00 0.605 .0075 1.957 6.221 1.837   0.00   0.00 170.57  1.00  1.00  1.00   3.1  0.64  2.00  0.00
 1982  15   101    91  -1.4 15.43   4.7   4.9  0.00  1.11   3.8   0.0   0.0   0.0   0.00   3.78   0.00 0.605 .0075 1.957 6.221 1.837   0.00   0.00 170.57  1.00  1.00  1.00   3.1  0.64  2.00  0.00
 1982  16   102    92 -14.1 15.43   4.7   4.9  0.00  1.11   3.8   0.0   0.0   0.0   0.00   3.78   0.00 0.605 .0075 1.957 6.221 1.837   0.00   0.00 170.57  1.00  1.00  1.00   3.1  0.64  2.00  0.00
 1982  17   103    93  -8.7 15.43   4.7   4.9  0.00  1.11   3.8   0.0   0.0   0.0   0.00   3.78   0.00 0.605 .0075 1.957 6.221 1.837   0.00   0.00 170.57  1.00  1.00  1.00   3.1  0.64  2.00  0.00
 1982  18   104    94   0.3 15.43   4.7   4.9  0.00  1.11   3.8   0.0   0.0   0.0   0.00   3.77   0.00 0.605 .0075 1.957 6.220 1.837   0.00   0.00 170.25  1.00  1.00  1.00   3.1  0.64  2.00  0.00
 1982  19   105    95  -0.6 15.43   4.7   4.9  0.00  1.11   3.8   0.0   0.0   0.0   0.00   3.77   0.00 0.605 .0075 1.957 6.220 1.837   0.00   0.00 170.25  1.00  1.00  1.00   3.1  0.64  2.00  0.00
 1982  20   106    96  -3.3 15.43   4.7   4.9  0.00  1.11   3.8   0.0   0.0   0.0   0.00   3.77   0.00 0.605 .0075 1.957 6.220 1.837   0.00   0.00 170.25  1.00  1.00  1.00   3.1  0.64  2.00  0.00
 1982  21   107    97  -5.0 15.43   4.7   4.9  0.00  1.11   3.8   0.0   0.0   0.0   0.00   3.77   0.00 0.605 .0075 1.957 6.220 1.837   0.00   0.00 170.25  1.00  1.00  1.00   3.1  0.64  2.00  0.00
 1982  22   108    98  -2.2 15.43   4.7   4.9  0.00  1.11   3.8   0.0   0.0   0.0   0.00   3.77   0.00 0.605 .0075 1.957 6.220 1.837   0.00   0.00 170.25  1.00  1.00  1.00   3.1  0.64  2.00  0.00
 1982  23   109    99 -10.9 15.43   4.7   4.9  0.00  1.11   3.8   0.0   0.0   0.0   0.00   3.78   0.00 0.605 .0075 1.957 6.220 1.837   0.00   0.00 171.11  1.00  1.00  1.00   3.1  0.64  2.00  0.00
 1982  24   110   100  -7.5 15.43   4.7   4.9  0.00  1.11   3.8   0.0   0.0   0.0   0.00   3.78   0.00 0.605 .0075 1.957 6.220 1.837   0.00   0.00 171.11  1.00  1.00  1.00   3.1  0.64  2.00  0.00
 1982  25   111   101  -1.1 15.43   4.7   4.9  0.00  1.11   3.8   0.0   0.0   0.0   0.00   3.78   0.00 0.605 .0075 1.957 6.220 1.837   0.00   0.00 171.11  1.00  1.00  1.00   3.1  0.64  2.00  0.00
 1982  26   112   102   1.4 15.44   4.7   4.9  0.00  1.11   3.8   0.0   0.0   0.0   0.00   3.77   0.00 0.605 .0076 1.957 6.219 1.835   0.00   0.00 169.55  1.00  1.00  1.00   3.3  0.64  2.00  0.00
 1982  27   113   103   8.1 15.53   4.7   4.9  0.00  1.11   3.8   0.0   0.0   0.0   0.00   3.76   0.00 0.605 .0079 1.956 6.210 1.827   0.00   0.00 163.24  1.00  1.00  1.00   3.6  0.65  2.00  0.00
 1982  28   114   104   0.0 15.53   4.7   4.9  0.00  1.11   3.8   0.0   0.0   0.0   0.00   3.76   0.00 0.605 .0079 1.956 6.210 1.827   0.00   0.00 163.26  1.00  1.00  1.00   3.6  0.65  2.00  0.00
 1982  29   115   105   5.2 15.58   4.7   4.9  0.00  1.11   3.8   0.0   0.0   0.0   0.00   3.75   0.00 0.605 .0081 1.956 6.204 1.822   0.00   0.00 162.45  1.00  1.00  1.00   3.8  0.66  2.00  0.00
 1982  30   116   106   0.0 15.58   4.7   4.9  0.00  1.11   3.8   0.0   0.0   0.0   0.00   3.75   0.00 0.605 .0081 1.956 6.204 1.822   0.00   0.00 162.46  1.00  1.00  1.00   3.8  0.66  2.00  0.00
 1982  31   117   107  -7.2 15.58   4.7   4.9  0.00  1.11   3.8   0.0   0.0   0.0   0.00   3.75   0.00 0.605 .0081 1.956 6.204 1.822   0.00   0.00 162.46  1.00  1.00  1.00   3.8  0.66  2.00  0.00
 1982  32   118   108  -1.9 15.58   4.7   4.9  0.00  1.11   3.8   0.0   0.0   0.0   0.00   3.75   0.00 0.605 .0081 1.956 6.204 1.822   0.00   0.00 162.46  1.00  1.00  1.00   3.8  0.66  2.00  0.00
 1982  33   119   109  -3.9 15.58   4.7   4.9  0.00  1.11   3.8   0.0   0.0   0.0   0.00   3.75   0.00 0.605 .0081 1.956 6.204 1.822   0.00   0.00 162.46  1.00  1.00  1.00   3.8  0.66  2.00  0.00
 1982  34   120   110 -13.0 15.58   4.7   4.9  0.00  1.11   3.8   0.0   0.0   0.0   0.00   3.77   0.00 0.607 .0081 1.956 6.204 1.822   0.00   0.00 222.23  1.00  1.00  1.00   3.2  0.64  2.00  0.00
 1982  35   121   111 -17.0 15.58   4.7   4.9  0.00  1.11   3.8   0.0   0.0   0.0   0.00   3.77   0.00 0.607 .0081 1.956 6.204 1.822   0.00   0.00 222.23  1.00  1.00  1.00   3.2  0.64  2.00  0.00
 1982  36   122   112 -15.5 15.58   4.7   4.9  0.00  1.11   3.8   0.0   0.0   0.0   0.00   3.77   0.00 0.607 .0081 1.956 6.204 1.822   0.00   0.00 222.23  1.00  1.00  1.00   3.2  0.64  2.00  0.00
 1982  37   123   113 -13.8 15.58   4.7   4.9  0.00  1.11   3.8   0.0   0.0   0.0   0.00   3.77   0.00 0.607 .0081 1.956 6.204 1.822   0.00   0.00 222.23  1.00  1.00  1.00   3.2  0.64  2.00  0.00
 1982  38   124   114  -6.4 15.58   4.7   4.9  0.00  1.11   3.8   0.0   0.0   0.0   0.00   3.77   0.00 0.607 .0081 1.956 6.204 1.822   0.00   0.00 222.23  1.00  1.00  1.00   3.2  0.64  2.00  0.00
 1982  39   125   115  -8.1 15.58   4.7   4.9  0.00  1.11   3.8   0.0   0.0   0.0   0.00   3.77   0.00 0.607 .0081 1.956 6.204 1.822   0.00   0.00 222.23  1.00  1.00  1.00   3.2  0.64  2.00  0.00
 1982  40   126   116 -14.4 15.58   4.7   4.9  0.00  1.11   3.8   0.0   0.0   0.0   0.00   3.77   0.00 0.607 .0081 1.956 6.204 1.822   0.00   0.00 222.23  1.00  1.00  1.00   3.2  0.64  2.00  0.00
 1982  41   127   117 -11.6 15.58   4.7   4.9  0.00  1.11   3.8   0.0   0.0   0.0   0.00   3.77   0.00 0.607 .0081 1.956 6.204 1.822   0.00   0.00 222.23  1.00  1.00  1.00   3.2  0.64  2.00  0.00
 1982  42   128   118  -8.9 15.58   4.7   4.9  0.00  1.11   3.8   0.0   0.0   0.0   0.00   3.77   0.00 0.607 .0081 1.956 6.204 1.822   0.00   0.00 222.23  1.00  1.00  1.00   3.2  0.64  2.00  0.00
 1982  43   129   119  -2.2 15.58   4.7   4.9  0.00  1.11   3.8   0.0   0.0   0.0   0.00   3.77   0.00 0.607 .0081 1.956 6.204 1.822   0.00   0.00 222.23  1.00  1.00  1.00   3.2  0.64  2.00  0.00
 1982  44   130   120  -4.1 15.58   4.7   4.9  0.00  1.11   3.8   0.0   0.0   0.0   0.00   3.77   0.00 0.607 .0081 1.956 6.204 1.822   0.00   0.00 222.23  1.00  1.00  1.00   3.2  0.64  2.00  0.00
 1982  45   131   121   2.8 15.61   4.7   4.9  0.00  1.11   3.8   0.0   0.0   0.0   0.00   3.77   0.00 0.607 .0083 1.955 6.200 1.818   0.00   0.00 215.65  1.00  1.00  1.00   3.4  0.64  2.00  0.00
 1982  46   132   122   4.7 15.66   4.7   4.9  0.00  1.11   3.8   0.0   0.0   0.0   0.00   3.76   0.00 0.607 .0084 1.955 6.194 1.813   0.00   0.00 211.30  1.00  1.00  1.00   3.5  0.65  2.00  0.00
 1982  47   133   123   3.6 15.70   4.7   4.9  0.00  1.11   3.8   0.0   0.0   0.0   0.00   3.76   0.00 0.607 .0086 1.955 6.189 1.808   0.00   0.00 209.28  1.00  1.00  1.00   3.6  0.65  2.00  0.00
 1982  48   134   124   2.5 15.73   4.7   4.9  0.00  1.11   3.8   0.0   0.0   0.0   0.00   3.76   0.00 0.607 .0087 1.954 6.186 1.805   0.00   0.00 208.11  1.00  1.00  1.00   3.7  0.65  2.00  0.00
 1982  49   135   125   7.0 15.80   4.7   4.9  0.00  1.11   3.8   0.0   0.0   0.0   0.00   3.75   0.00 0.607 .0090 1.954 6.176 1.796   0.00   0.00 194.50  1.00  1.00  1.00   3.9  0.66  2.00  0.00
 1982  50   136   126   8.9 21.04   4.7   4.9  0.00  1.11   3.8   0.0   0.0   0.0   0.00   3.73   0.00 0.607 .0094 1.953 6.164 1.785   0.00   0.00 174.89  1.00  1.00  1.00   4.1  0.67  2.00  0.00
 1982  51   137   127  11.1 21.13   4.7   4.9  0.00  1.11   3.8   0.1   0.0   0.0   0.00   3.71   0.00 0.607 .0098 1.952 6.148 1.771   0.00   0.00 153.72  1.00  1.00  1.00   4.4  0.68  2.00  0.00
 1982  52   138   128  10.0 21.22   4.7   4.9  0.00  1.11   3.8   0.1   0.0   0.0   0.00   3.69   0.00 0.607 .0102 1.951 6.134 1.759   0.00   0.00 133.35  1.00  1.00  1.00   4.6  0.69  2.00  0.00
 1982  53   139   129  12.2 21.32   4.7   4.9  0.00  1.11   3.8   0.1   0.0   0.0   0.00   3.66   0.00 0.607 .0107 1.949 6.117 1.743   0.00   0.00 113.64  1.00  1.00  1.00   4.8  0.69  2.00  0.00
 1982  54   140   130   9.4 21.40   4.7   4.9  0.00  1.11   3.8   0.1   0.0   0.0   0.00   3.65   0.00 0.607 .0111 1.948 6.104 1.731   0.00   0.00 111.24  1.00  1.00  1.00   4.9  0.69  2.00  0.00
 1982  55   141   131   3.3 21.43   4.7   4.9  0.00  1.11   3.8   0.1   0.0   0.0   0.00   3.62   0.00 0.607 .0113 1.948 6.099 1.726   0.00   0.00  98.20  1.00  1.00  1.00   5.0  0.70  2.00  0.00
 1982  56   142   132  -1.4 21.43   4.7   4.9  0.00  1.11   3.8   0.1   0.0   0.0   0.00   3.62   0.00 0.607 .0113 1.948 6.099 1.726   0.00   0.00  98.20  1.00  1.00  1.00   5.0  0.70  2.00  0.00
 1982  57   143   133  -2.0 21.43   4.7   4.9  0.00  1.11   3.8   0.1   0.0   0.0   0.00   3.62   0.00 0.607 .0113 1.948 6.099 1.726   0.00   0.00  98.20  1.00  1.00  1.00   5.0  0.70  2.00  0.00
 1982  58   144   134   1.7 21.44   4.7   4.9  0.00  1.11   3.8   0.1   0.0   0.0   0.00   3.61   0.00 0.607 .0113 1.948 6.096 1.724   0.00   0.00  92.14  1.00  1.00  1.00   5.0  0.70  2.00  0.00
 1982  59   145   135   4.7 21.48   4.7   4.9  0.00  1.11   3.8   0.1   0.0   0.0   0.00   3.57   0.00 0.607 .0115 1.947 6.089 1.718   0.00   0.00  79.96  1.00  1.00  1.00   5.2  0.70  2.00  0.00
 1982  60   146   136   8.4 21.55   4.7   4.9  0.00  1.11   3.8   0.2   0.0   0.0   0.00   3.50   0.00 0.607 .0119 1.947 6.077 1.706   0.00   0.00  65.39  1.00  1.00  1.00   5.3  0.71  2.00  0.00
 1982  61   147   137   8.7 21.62   4.7   4.9  0.00  1.11   3.8   0.2   0.0   0.0   0.00   3.48   0.00 0.607 .0122 1.946 6.064 1.694   0.00   0.00  61.42  1.00  1.00  1.00   5.3  0.71  2.00  0.00
 1982  62   148   138  -0.2 21.62   4.7   4.9  0.00  1.11   3.8   0.2   0.0   0.0   0.00   3.48   0.00 0.607 .0122 1.946 6.064 1.694   0.00   0.00  61.43  1.00  1.00  1.00   5.3  0.71  2.00  0.00
 1982  63   149   139  -3.7 21.62   4.7   4.9  0.00  1.11   3.8   0.2   0.0   0.0   0.00   3.48   0.00 0.607 .0122 1.946 6.064 1.694   0.00   0.00  61.43  1.00  1.00  1.00   5.3  0.71  2.00  0.00
 1982  64   150   140  -4.2 21.62   4.7   4.9  0.00  1.11   3.8   0.2   0.0   0.0   0.00   3.48   0.00 0.607 .0122 1.946 6.064 1.694   0.00   0.00  61.43  1.00  1.00  1.00   5.3  0.71  2.00  0.00
 1982  65   151   141  -3.0 21.62   4.7   4.9  0.00  1.11   3.8   0.2   0.0   0.0   0.00   3.48   0.00 0.607 .0122 1.946 6.064 1.694   0.00   0.00  61.43  1.00  1.00  1.00   5.3  0.71  2.00  0.00
 1982  66   152   142  -3.0 21.62   4.7   4.9  0.00  1.11   3.8   0.2   0.0   0.0   0.00   3.48   0.00 0.607 .0122 1.946 6.064 1.694   0.00   0.00  61.43  1.00  1.00  1.00   5.3  0.71  2.00  0.00
 1982  67   153   143   2.5 21.64   4.7   4.9  0.00  1.12   3.8   0.2   0.0   0.0   0.00   3.44   0.00 0.607 .0123 1.945 6.060 1.691   0.00   0.00  54.33  1.00  1.00  1.00   5.4  0.71  2.00  0.00
 1982  68   154   144   1.4 21.66   4.7   4.9  0.00  1.12   3.8   0.2   0.0   0.0   0.00   3.43   0.00 0.607 .0124 1.945 6.058 1.689   0.00   0.00  51.54  1.00  1.00  1.00   5.4  0.71  2.00  0.00
 1982  69   155   145  11.1 21.75   4.7   4.9  0.00  1.12   3.8   0.3   0.0   0.0   0.00   3.33   0.00 0.607 .0128 1.944 6.040 1.673   0.00   0.00  42.00  1.00  1.00  1.00   5.5  0.71  2.00  0.00
 1982  70   156   146  10.0 21.83   4.7   4.9  0.00  1.13   3.8   0.4   0.0   0.0   0.00   3.22   0.00 0.607 .0133 1.943 6.024 1.658   0.00   0.00  35.02  1.00  1.00  1.00   5.5  0.72  2.00  0.00
 1982  71   157   147  12.8 21.94   4.7   4.9  0.00  1.13   3.8   0.4   0.0   0.0   0.00   3.14   0.00 0.607 .0138 1.941 6.003 1.639   0.00   0.00  31.40  1.00  1.00  1.00   5.5  0.72  2.00  0.00
 1982  72   158   148   8.0 22.01   4.7   4.9  0.00  1.14   3.8   0.5   0.0   0.0   0.00   2.95   0.00 0.607 .0141 1.940 5.990 1.627   0.00   0.00  24.87  1.00  1.00  1.00   5.6  0.72  2.00  0.00
 1982  73   159   149   7.8 22.07   4.7   4.9  0.00  1.14   3.8   0.6   0.0   0.0   0.00   2.93   0.00 0.607 .0145 1.939 5.977 1.615   0.00   0.00  24.34  1.00  1.00  1.00   5.6  0.72  2.00  0.00
 1982  74   160   150  10.0 22.16   4.7   4.9  0.00  1.14   3.8   0.6   0.0   0.0   0.00   2.85   0.00 0.607 .0149 1.938 5.960 1.600   0.00   0.00  22.37  1.00  1.00  1.00   5.6  0.72  2.00  0.00
[...]
 1982  73   159   149   7.8 22.07   4.7   5.0  0.00  1.15   3.8   0.6   0.0   0.0   0.00   2.96   0.00 0.611 .0146 1.939 5.977 1.615   0.00   0.00  24.48  1.00  1.00  1.00   5.6  0.72  2.00  0.00
 1982  74   160   150  10.0 22.16   4.7   5.0  0.00  1.15   3.8   0.6   0.0   0.0   0.00   2.88   0.00 0.611 .0150 1.938 5.960 1.600   0.00   0.00  22.49  1.00  1.00  1.00   5.6  0.72  2.00  0.00
 1982  75   161   151  13.0 22.27   4.7   5.0  0.00  1.17   3.8   0.8   0.0   0.0   0.00   2.57   0.00 0.611 .0156 1.936 5.938 1.580   0.00   0.00  17.18  1.00  1.00  1.00   5.6  0.72  2.00  0.00
 1982  76   162   152  13.9 22.39   4.7   5.0  0.00  1.19   3.8   1.0   0.0   0.0   0.00   2.20   0.00 0.611 .0162 1.935 5.915 1.559   0.00   0.00  13.36  1.00  1.00  1.00   5.6  0.72  2.00  0.00
 1982  77   163   153   9.8 22.51   4.7   5.0  0.00  1.19   3.8   1.1   0.0   0.0   0.00   2.15   0.00 0.611 .0166 1.934 5.898 1.544   0.00   0.00  12.92  1.00  1.00  1.00   5.6  0.72  2.00  0.00
 1982  78   164   154  16.1 22.71   4.7   5.0  0.00  1.22   3.7   1.3   0.0   0.0   0.00   1.70   0.00 0.611 .0173 1.931 5.871 1.519   0.00   0.00  10.17  1.00  1.00  1.00   5.6  0.72  2.00  0.00
 1982  79   165   155   8.3 22.82   4.7   5.0  0.00  1.25   3.7   1.7   0.0   0.0   0.00   1.12   0.00 0.611 .0177 1.930 5.856 1.506   0.00   0.00   7.53  1.00  1.00  1.00   5.6  0.72  2.00  0.00
 1982  80   166   156   2.5 22.85   4.7   5.0  0.00  1.28   3.7   1.7   0.0   0.0   0.00   1.06   0.00 0.611 .0178 1.930 5.852 1.502   0.00   0.00   6.51  1.00  1.00  1.00   5.6  0.72  2.00  0.00
 1982  81   167   157   3.9 22.90   4.7   5.0  0.00  1.32   3.6   1.8   0.0   0.0   0.00   0.89   0.00 0.611 .0180 1.930 5.845 1.496   0.00   0.00   5.25  1.00  1.00  1.00   5.6  0.72  2.00  0.00
 1982  82   168   158   7.8 23.00   4.7   5.0  0.00  1.35   3.6   2.2   0.1   0.0   0.00   0.30   0.00 0.611 .0184 1.929 5.831 1.483   0.00   0.00   4.62  1.00  1.00  1.00   5.6  0.71  2.00  0.00
 1982  83   169   159   6.6 23.08   4.9   5.1  0.00  1.40   3.7   2.4   0.1   0.0   0.00   0.00   0.00 0.611 .0187 1.928 5.820 1.472   0.00   0.00   3.95  1.00  1.00  1.00   5.5  0.71  2.00  0.16
 1982  84   170   160   3.9 23.13   5.1   5.3  0.00  1.46   3.9   2.5   0.1   0.0   0.00   0.00   0.00 0.611 .0189 1.927 5.813 1.466   0.00   0.00   3.48  1.00  1.00  1.00   5.5  0.71  2.00  0.21
 1982  85   171   161   3.0 23.17   5.2   5.5  0.00  1.50   4.0   2.6   0.1   0.0   0.00   0.00   0.00 0.611 .0191 1.927 5.807 1.461   0.00   0.00   3.17  1.00  1.00  1.00   5.5  0.71  2.00  0.15
 1982  86   172   162   5.6 23.24   5.6   5.9  0.00  1.57   4.3   2.8   0.1   0.0   0.00   0.00   0.00 0.611 .0194 1.926 5.797 1.452   0.00   0.00   2.97  1.00  1.00  1.00   5.5  0.71  2.00  0.40
 1982  87   173   163   6.9 23.33   6.2   6.4  0.00  1.62   4.8   3.2   0.1   0.0   0.00   0.00   0.00 0.611 .0198 1.925 5.785 1.441   0.00   0.00   3.03  1.00  1.00  1.00   5.5  0.71  2.00  0.58
 1982  88   174   164  10.3 23.46   7.2   7.5  0.00  1.65   5.8   3.8   0.1   0.0   0.00   0.00   0.00 0.611 .0204 1.924 5.766 1.423   0.00   0.00   3.41  1.00  1.00  1.00   5.5  0.71  2.00  1.03
 1982  89   175   165  15.0 23.65   9.0   9.2  0.00  1.75   7.4   4.9   0.1   0.0   0.00   0.00   0.00 0.611 .0214 1.922 5.738 1.398   0.00   0.00   3.71  1.00  1.00  1.00   5.5  0.71  1.69  1.72
 1982  90   176   166  10.9 23.78  10.3  10.5  0.00  1.90   8.6   5.7   0.1   0.0   0.00  -0.00   0.00 0.611 .0221 1.920 5.718 1.380   0.00   0.00   3.49  1.00  1.00  1.00   5.4  0.71  2.00  1.30
 1982  91   177   167  13.9 23.96  11.9  12.1  0.00  2.05  10.1   6.6   0.2   0.0   0.00   0.00   0.00 0.611 .0231 1.919 5.692 1.357   0.00   0.00   3.42  1.00  1.00  1.00   5.4  0.71  1.81  1.65
 1982  92   178   168  17.0 24.17  13.9  14.1  0.00  2.19  11.9   7.8   0.2   0.0   0.00   0.00   0.00 0.611 .0243 1.916 5.661 1.328   0.00   0.00   3.50  1.00  1.00  1.00   5.3  0.71  1.55  1.95
 1982  93   179   169   7.5 24.27  14.7  15.0  0.00  2.40  12.6   8.2   0.2   0.0   0.00   0.04   0.00 0.617 .0250 1.915 5.646 1.315   0.00   0.00   3.08  1.00  1.00  1.00   5.3  0.70  2.00  0.88
 1982  94   180   170   5.2 24.33  15.2  15.4  0.00  2.58  12.8   8.4   0.2   0.0   0.00   0.03   0.00 0.621 .0254 1.914 5.636 1.306   0.00   0.00   2.77  1.00  1.00  1.00   5.3  0.70  2.00  0.46
 1982  95   181   171   3.6 24.38  15.4  15.6  0.00  2.64  13.0   8.5   0.2   0.0   0.00   0.00   0.00 0.621 .0258 1.914 5.630 1.300   0.00   0.00   2.68  1.00  1.00  1.00   5.3  0.70  2.00  0.18
 1982  96   182   172  -0.8 24.38  15.4  15.6  0.00  2.64  13.0   8.5   0.2   0.0   0.00   0.02   0.00 0.621 .0258 1.914 5.630 1.300   0.00   0.00   2.68  1.00  1.00  1.00   5.3  0.70  2.00  0.00
 1982  97   183   173   3.0 24.42  15.5  15.7  0.00  2.67  13.1   8.6   0.2   0.0   0.00   0.00   0.00 0.621 .0261 1.914 5.624 1.294   0.00   0.00   2.65  1.00  1.00  1.00   5.3  0.70  2.00  0.13
 1982  98   184   174   4.4 24.47  15.8  16.1  0.00  2.76  13.3   8.7   0.2   0.0   0.00   0.00   0.00 0.621 .0265 1.913 5.615 1.287   0.00   0.00   2.54  1.00  1.00  1.00   5.3  0.70  2.00  0.34
 1982  99   185   175   4.1 24.53  16.2  16.5  0.00  2.97  13.5   8.9   0.3   0.0   0.00   0.00   0.00 0.621 .0269 1.912 5.607 1.279   0.00   0.00   2.28  1.00  1.00  1.00   5.3  0.70  2.00  0.41
 1982 100   186   176   8.7 24.63  17.4  17.7  0.00  3.22  14.4   9.5   0.3   0.0   0.00   0.00   0.00 0.621 .0279 1.911 5.590 1.264   0.00   0.00   2.16  1.00  1.00  1.00   5.2  0.70  2.00  1.19
 1982 101   187   177  13.6 24.81  19.4  19.6  0.00  3.46  16.2  10.6   0.3   0.0   0.00  -0.00   0.00 0.621 .0295 1.909 5.563 1.239   0.00   0.00   2.16  1.00  1.00  1.00   5.2  0.70  2.00  1.95
 1982 102   188   178  20.2 25.06  22.1  22.4  0.00  3.73  18.6  12.2   0.4   0.0   0.00   0.00   0.00 0.621 .0321 1.906 5.523 1.203   0.00   0.00   2.22  1.00  1.00  1.00   5.1  0.70  1.87  2.75
 1982 103   189   179  16.1 25.27  24.6  24.8  0.00  4.03  20.8  13.6   0.4   0.0   0.00   0.00   0.00 0.621 .0344 1.904 5.491 1.174   0.00   0.00   2.20  1.00  1.00  1.00   5.1  0.70  2.00  2.42
 1982 104   190   180  21.1 25.53  27.5  27.7  0.00  4.36  23.4  15.3   0.5   0.0   0.00   0.00   0.00 0.621 .0376 1.901 5.449 1.135   0.00   0.00   2.22  1.00  1.00  1.00   5.0  0.69  1.66  2.95
 1982 105   191   181  24.2 25.84  30.1  30.3  0.00  4.60  25.7  16.7   0.6   0.0   0.00   0.11   0.00 0.638 .0415 1.897 5.400 1.091   0.00   0.00   2.26  1.00  1.00  1.00   5.0  0.69  1.83  2.56
 1982 106   192   182  18.4 26.07  32.4  32.6  0.00  4.71  27.9  18.2   0.6   0.0   0.00   0.08   0.00 0.651 .0446 1.895 5.363 1.057   0.00   0.00   2.37  1.00  1.00  1.00   4.9  0.69  1.90  2.34
 1982 107   193   183  10.0 26.20  34.1  34.3  0.00  5.12  29.1  19.1   0.6   0.0   0.00   0.05   0.00 0.658 .0464 1.893 5.343 1.039   0.00   0.00   2.20  1.00  1.00  1.00   4.9  0.69  2.00  1.68
 1982 108   194   184  12.2 26.35  36.2  36.4  0.00  5.53  30.9  20.2   0.7   0.0   0.00   0.06   0.00 0.666 .0487 1.891 5.318 1.016   0.00   0.00   2.11  1.00  1.00  1.00   4.9  0.69  1.97  2.12
 1982 109   195   185  15.3 26.54  38.8  38.9  0.00  5.92  33.0  21.6   0.7   0.0   0.00   0.07   0.00 0.677 .0518 1.889 5.278 0.997   0.00   0.00   2.05  1.00  1.00  1.00   4.8  0.68  1.56  2.55
 1982 110   196   186   6.7 26.54  39.6  39.7  0.00  6.35  33.4  21.8   0.7   0.0   0.00   0.06   0.00 0.687 .0533 1.887 5.248 0.992   0.00   0.00   1.89  1.00  1.00  1.00   4.8  0.68  2.00  0.80
 1982 111   197   187   7.0 26.54  40.5  40.6  0.00  6.74  33.9  22.1   0.8   0.0   0.00   0.07   0.00 0.697 .0550 1.885 5.216 0.987   0.00   0.00   1.78  1.00  1.00  1.00   4.8  0.68  2.00  0.90
 1982 112   198   188   8.6 26.54  41.8  41.9  0.00  7.20  34.7  22.7   0.8   0.0   0.00   0.08   0.00 0.710 .0571 1.883 5.177 0.981   0.00   0.00   1.68  1.00  1.00  1.00   4.7  0.68  2.00  1.36
 1982 113   199   189  11.7 26.54  43.7  43.8  0.00  7.60  36.2  23.6   0.9   0.0   0.00   0.11   0.00 0.727 .0603 1.880 5.123 0.973   0.00   0.00   1.63  1.00  1.00  1.00   4.6  0.68  2.00  1.89
 1982 114   200   190  16.4 26.54  46.1  46.2  0.00  7.94  38.3  24.9   1.0   0.0   0.00   0.16   0.00 0.751 .0649 1.876 5.049 0.961   0.00   0.00   1.63  1.00  1.00  1.00   4.5  0.67  2.00  2.42
 1982 115   201   191  13.1 26.54  47.6  47.7  0.00  8.14  39.5  25.7   1.1   0.0   0.00   0.12   0.00 0.771 .0688 1.873 4.989 0.952   0.00   0.00   1.62  1.00  1.00  1.00   4.5  0.67  2.00  1.51
 1982 116   202   192  14.1 30.52  49.7  49.7  0.00  8.60  41.1  26.7   1.2   0.0   0.00   0.13   0.00 0.792 .0730 1.870 4.924 0.942   0.00   0.00   1.57  1.00  1.00  1.00   4.4  0.67  2.00  2.04
 1982 117   203   193  10.6 31.01  50.8  50.8  0.00  8.72  42.0  27.2   1.3   0.0   0.00   0.10   0.00 0.807 .0764 1.867 4.876 0.935   0.00   0.00   1.57  1.00  1.00  1.00   4.3  0.66  2.00  1.07
 1982 118   204   194   8.4 31.41  51.3  51.3  0.00  8.73  42.5  27.6   1.3   0.0   0.00   0.08   0.00 0.820 .0792 1.865 4.838 0.929   0.00   0.00   1.59  1.00  1.00  1.00   4.3  0.66  2.00  0.52
 1982 119   205   195  10.0 31.87  52.5  52.5  0.00  8.84  43.7  28.3   1.4   0.0   0.00   0.09   0.00 0.834 .0824 1.863 4.792 0.922   0.00   0.00   1.60  1.00  1.00  1.00   4.2  0.66  2.00  1.26
 1982 120   206   196  13.9 32.52  54.4  54.3  0.00  9.02  45.3  29.3   1.5   0.0   0.00   0.12   0.00 0.855 .0870 1.859 4.729 0.912   0.00   0.00   1.61  1.00  1.00  1.00   4.2  0.66  2.00  1.84
 1982 121   207   197  16.1 33.28  56.4  56.3  0.00  9.25  47.0  30.3   1.7   0.0   0.00   0.14   0.00 0.879 .0924 1.855 4.655 0.901   0.00   0.00   1.62  1.00  1.00  1.00   4.0  0.65  2.00  2.01
 1982 122   208   198  18.0 34.12  58.6  58.5  0.00  9.55  48.9  31.4   1.9   0.0   0.00   0.16   0.00 0.905 .0986 1.851 4.573 0.888   0.00   0.00   1.61  1.00  1.00  1.00   3.9  0.65  1.90  2.20
 1982 123   209   199  22.0 35.15  60.8  60.7  0.00  9.88  50.8  32.5   2.1   0.0   0.00   0.19   0.00 0.937 0.106 1.845 4.473 0.873   0.00   0.00   1.58  1.00  1.00  1.00   3.8  0.64  1.66  2.23
 1982 124   210   200  24.5 36.29  62.5  62.3  0.00 10.27  52.1  33.1   2.4   0.0   0.00   0.20   0.00 0.973 0.115 1.839 4.361 0.856   0.00   0.00   1.54  1.00  1.00  1.00   3.7  0.63  1.81  1.71
 1982 125   211   201  18.0 37.14  63.7  63.4  0.00 10.32  53.1  33.8   2.5   0.0   0.00   0.15   0.00 1.000 0.122 1.835 4.279 0.843   0.00   0.00   1.55  1.00  1.00  1.00   3.6  0.63  2.00  1.14
 1982 126   212   202  10.9 37.65  64.4  64.2  0.00 10.54  53.6  34.1   2.6   0.0   0.00   0.09   0.00 1.015 0.127 1.832 4.230 0.835   0.00   0.00   1.51  1.00  1.00  1.00   3.5  0.63  2.00  0.76
 1982 127   213   203  14.4 38.32  66.4  66.1  0.00 10.99  55.1  34.9   2.9   0.0   0.00   0.11   0.00 1.037 0.132 1.829 4.164 0.825   0.00   0.00   1.46  1.00  1.00  1.00   3.4  0.62  1.81  1.97
 1982 128   214   204  20.5 39.28  68.9  68.6  0.00 11.44  57.1  35.9   3.3   0.0   0.00   0.16   0.00 1.066 0.141 1.824 4.070 0.811   0.00   0.00   1.42  1.00  1.00  1.00   3.3  0.62  1.08  2.51
 1982 129   215   205  22.5 40.38  70.7  70.3  0.00 11.82  58.5  36.6   3.7   0.0   0.00   0.17   0.00 1.099 0.150 1.818 3.966 0.792   0.00   0.00   1.39  1.00  1.00  1.00   3.2  0.61  1.06  1.81
 1982 130   216   206  22.5 41.56  70.7  70.3  0.00 12.08  58.2  35.2   4.5   0.0   0.00   1.02   0.10 1.099 0.160 1.812 3.859 0.769   0.00   0.00   1.33  1.00  1.00  1.00   2.9  0.60  2.00  0.00
 1982 131   217   207  22.0 42.72  70.7  70.3  0.00 12.38  57.9  33.9   5.5   0.0   0.00   1.67   0.20 1.099 0.170 1.806 3.755 0.746   0.00   0.00   1.26  1.00  1.00  1.00   2.7  0.58  2.00  0.00
 1982 132   218   208  18.9 43.71  70.7  70.3  0.00 12.49  57.8  32.6   5.8   0.0   0.00   3.02   0.29 1.099 0.179 1.801 3.666 0.726   0.00   0.00   1.24  1.00  1.00  1.00   2.6  0.58  2.00  0.00
 1982 133   219   209  20.0 44.77  70.7  70.3  0.00 12.60  57.7  31.5   6.1   0.0   0.00   4.15   0.38 1.099 0.188 1.796 3.571 0.705   0.00   0.00   1.21  1.00  1.00  1.00   2.4  0.57  2.00  0.00
 1982 134   220   210  17.8 45.70  70.7  70.3  0.00 12.72  57.6  30.4   6.5   0.0   0.00   5.26   0.46 1.099 0.196 1.792 3.487 0.686   0.00   0.00   1.18  1.00  1.00  1.00   2.3  0.56  2.00  0.00
 1982 135   221   211  17.8 46.63  70.7  70.3  0.00 13.04  57.2  29.4   7.5   0.0   0.00   5.37   0.53 1.099 0.205 1.787 3.403 0.667   0.00   0.00   1.12  1.00  1.00  1.00   2.1  0.55  2.00  0.00
 1982 136   222   212  19.5 47.66  70.7  70.3  0.00 13.14  57.1  28.4   7.7   0.0   0.00   6.42   0.62 1.099 0.214 1.782 3.311 0.647   0.00   0.00   1.09  1.00  1.00  1.00   2.0  0.54  2.00  0.00
 1982 137   223   213  19.5 48.68  70.7  70.3  0.00 13.29  57.0  27.3   8.2   0.0   0.00   7.32   0.70 1.099 0.224 1.777 3.219 0.626   0.00   0.00   1.06  1.00  1.00  1.00   1.9  0.53  2.00  0.00
 1982 138   224   214  20.3 49.75  70.7  70.3  0.00 13.53  56.7  26.2   8.9   0.0   0.00   7.83   0.79 1.099 0.234 1.771 3.123 0.605   0.00   0.00   1.01  1.00  1.00  1.00   1.8  0.52  2.00  0.00
 1982 139   225   215  23.6 53.77  70.7  70.2  0.00 13.74  56.5  25.1   9.6   0.0   0.00   8.59   0.89 1.099 0.246 1.766 3.062 0.591   0.00   0.00   0.97  1.00  1.00  1.00   1.7  0.51  2.00  0.00
 1982 140   226   216  21.1 57.99  70.7  70.2  0.00 13.81  56.4  24.4   9.9   0.0   0.00   9.22   0.97 1.099 0.257 1.762 3.020 0.580   0.00   0.00   0.95  1.00  1.00  1.00   1.6  0.51  2.00  0.00
 1982 141   227   217  18.0 63.99  70.7  70.2  0.00 13.91  56.3  23.8  10.5   0.0   0.00   9.24   1.03 1.099 0.266 1.758 2.984 0.571   0.00   0.00   0.91  1.00  1.00  1.00   1.5  0.50  2.00  0.00
 1982 142   228   218  16.1 70.32  70.7  70.2  0.00 13.96  56.3  23.3  11.0   0.0   0.00   9.35   1.09 1.099 0.275 1.755 2.952 0.563   0.00   0.00   0.89  1.00  1.00  1.00   1.5  0.50  2.00  0.00
 1982 143   229   219  18.0 71.71  70.7  70.2  0.00 14.00  56.2  22.9  11.7   0.1   0.00   9.08   1.15 1.099 0.284 1.752 2.916 0.554   2.20   0.00   0.86  1.00  1.00  1.00   1.4  0.49  2.00  0.00
 1982 144   230   220  18.7 73.14  70.7  70.2  0.00 13.98  56.2  22.4  11.6   0.7   0.01   9.35   1.22 1.099 0.294 1.748 2.878 0.545   2.20   0.00   0.84  1.00  1.00  1.00   1.4  0.49  2.00  0.00
 1982 145   231   221  20.0 74.68  70.7  70.2  0.00 13.96  56.2  21.8  11.4   1.9   0.03   9.03   1.29 1.099 0.304 1.744 2.838 0.535   2.20   0.00   0.81  1.00  1.00  1.00   1.3  0.48  2.00  0.00
 1982 146   232   222  16.4 75.94  70.7  70.2  0.00 13.97  56.2  21.4  11.2   3.4   0.06   8.42   1.35 1.099 0.313 1.741 2.806 0.526   2.20   0.00   0.77  1.00  1.00  1.00   1.3  0.48  2.00  0.00
 1982 147   233   223  18.4 77.35  70.7  70.2  0.00 13.99  56.2  20.9  11.0   5.5   0.10   7.07   1.42 1.099 0.322 1.737 2.769 0.517   2.20   0.00   0.72  1.00  1.00  1.00   1.3  0.48  2.00  0.00
 1982 148   234   224  23.3 79.15  70.7  70.2  0.00 13.98  56.2  20.4  10.8   8.8   0.16   4.67   1.50 1.099 0.334 1.732 2.722 0.506   2.20   0.00   0.67  1.00  1.00  1.00   1.3  0.47  2.00  0.00
 1982 149   235   225  21.4 80.20  70.7  70.1  0.00 13.98  56.2  19.8  10.5  12.6   0.22   1.93   1.58 1.099 0.346 1.729 2.675 0.498   2.20   0.00   0.61  1.00  1.00  1.00   1.2  0.47  2.00  0.00
 1982 150   236   226  20.5 80.61  72.2  71.6  0.00 13.97  57.6  19.4  10.4  16.6   0.29   0.09   1.60 1.099 0.356 1.727 2.627 0.494   2.20   0.00   0.58  1.00  1.00  1.00   1.2  0.47  2.00  1.45
 1982 151   237   227  17.8 80.96  75.0  74.4  0.00 13.97  60.4  18.9  10.3  20.1   0.33   0.08   1.63 1.099 0.365 1.725 2.584 0.490   2.20   0.00   0.57  1.00  1.00  1.00   1.2  0.47  2.00  2.79
 1982 152   238   228  12.8 81.22  76.4  75.8  0.00 14.01  61.8  18.6  10.2  22.1   0.36   0.05   1.64 1.099 0.372 1.724 2.554 0.488   2.20   0.00   0.55  1.00  1.00  1.00   1.2  0.47  2.00  1.45
 1982 153   239   229  15.2 81.52  78.8  78.2  0.00 14.01  64.2  18.0  10.2  25.0   0.39   0.38   1.76 1.099 0.380 1.722 2.518 0.485   2.20   0.00   0.54  1.00  1.00  1.00   1.2  0.47  1.57  2.43
 1982 154   240   230  15.0 81.82  80.4  79.7  0.00 13.58  66.2  17.4  10.1  27.7   0.42   0.44   1.90 1.099 0.388 1.672 2.482 0.482   2.20   0.00   0.54  1.00  1.00  0.97   1.1  0.47  0.79  1.94
 1982 155   241   231  17.0 82.15  81.8  81.2  0.00 12.95  68.2  16.5  10.0  31.1   0.46   0.43   2.04 1.099 0.397 1.591 2.442 0.478   2.20   0.00   0.52  1.00  1.00  0.93   1.1  0.47  0.58  2.50
 1982 156   242   232  17.8 82.50  83.3  82.7  0.00 12.44  70.3  15.5   9.9  34.6   0.49   0.47   2.19 1.099 0.406 1.525 2.354 0.475   2.20   0.00   0.50  0.98  1.00  0.89   1.1  0.46  0.50  3.05
 1982 157   243   233  25.5 83.01  84.4  83.8  0.00 12.03  71.7  13.2   9.6  39.6   0.55   0.47   2.35 1.099 0.419 1.473 2.061 0.462   2.20   0.00   0.45  0.88  0.98  0.86   1.1  0.46  0.23  4.68
 1982 158   244   234  20.2 83.41  84.9  84.3  0.00 11.70  72.6  11.0   9.4  43.5   0.60   0.57   2.59 1.099 0.430 1.431 1.797 0.451   2.20   0.00   0.41  0.78  0.97  0.84   1.0  0.46  0.14  3.78
 1982 159   245   235  25.8 83.92  85.5  84.8  0.00 11.44  73.4   9.2   9.2  47.2   0.64   0.37   2.77 1.099 0.443 1.398 1.557 0.441   2.14   0.00   0.37  0.70  0.96  0.82   1.0  0.46  0.11  4.88
 1982 160   246   236  22.8 84.37  87.1  86.4  0.00 11.23  75.2   7.8   9.0  51.2   0.68   0.38   3.01 1.099 0.455 1.372 1.366 0.433   2.12   0.00   0.34  0.63  0.95  0.80   1.0  0.46  0.35  4.56
 1982 161   247   237  16.4 84.69  87.6  86.9  0.00 11.07  75.8   6.6   8.9  53.6   0.71   0.26   3.21 1.099 0.464 1.350 1.213 0.426   2.10   0.00   0.32  0.57  0.94  0.79   0.9  0.46  0.15  3.35
 1982 162   248   238  18.0 85.05  87.9  87.2  0.00 10.94  76.3   5.6   8.8  55.4   0.73   0.25   3.46 1.099 0.473 1.335 1.090 0.421   2.04   0.00   0.31  0.52  0.94  0.78   0.9  0.45  0.08  3.82
 1982 163   249   239  19.8 85.44  88.5  87.8  0.00 10.83  77.0   4.8   8.7  57.1   0.74   0.21   3.72 1.099 0.484 1.321 0.992 0.417   1.97   0.00   0.30  0.48  0.94  0.78   0.9  0.45  0.14  4.19
 1982 164   250   240  20.9 85.86  90.3  89.6  0.00 10.74  78.9   4.2   8.6  59.8   0.76   0.17   3.98 1.099 0.495 1.311 0.914 0.413   1.94   0.00   0.29  0.46  0.94  0.77   0.8  0.45  0.41  4.44
 1982 165   251   241  23.9 86.33  90.6  89.9  0.00 10.67  79.2   3.6   8.6  60.8   0.77   0.14   4.26 1.099 0.507 1.303 0.851 0.411   1.90   0.00   0.28  0.44  0.94  0.77   0.8  0.45  0.06  5.06
 1982 166   252   242  22.5 86.77  90.9  90.1  0.00 10.60  79.5   3.2   8.5  61.6   0.77   0.12   4.55 1.099 0.519 1.296 0.801 0.409   1.90   0.00   0.28  0.42  0.95  0.76   0.8  0.44  0.06  4.79
 1982 167   253   243  18.6 87.14  92.1  91.3  0.00 10.55  80.8   2.8   8.5  63.2   0.78   0.09   4.83 1.099 0.528 1.290 0.761 0.407   1.90   0.00   0.27  0.41  0.95  0.76   0.7  0.44  0.29  4.02
 1982 168   254   244  21.1 87.56  93.1  92.3  0.00 10.50  81.8   2.5   8.5  64.5   0.79   0.06   5.06 1.099 0.539 1.285 0.729 0.405   1.90   0.00   0.27  0.41  0.96  0.76   0.7  0.44  0.22  4.52
 1982 169   255   245  21.1 87.98  93.3  92.5  0.00 10.46  82.1   2.2   8.4  65.0   0.79   0.05   5.31 1.099 0.550 1.282 0.703 0.404   1.90   0.00   0.27  0.40  0.96  0.76   0.7  0.44  0.06  4.52
 1982 170   256   246  19.2 88.36  93.6  92.8  0.00 10.43  82.4   1.9   8.4  65.5   0.79   0.04   5.56 1.099 0.560 1.278 0.682 0.404   1.90   0.00   0.27  0.40  0.97  0.76   0.6  0.43  0.07  4.12
 1982 171   257   247  22.8 88.81  94.8  94.0  0.00 10.39  83.6   1.7   8.3  66.8   0.80   0.03   5.84 1.099 0.572 1.275 0.660 0.403   1.90   0.00   0.27  0.40  0.98  0.76   0.6  0.43  0.24  4.80
 1982 172   258   248  22.2 89.25  95.1  94.3  0.00 10.36  84.0   1.5   8.3  67.4   0.80   0.03   6.14 1.099 0.583 1.273 0.638 0.402   1.90   0.00   0.26  0.40  0.99  0.76   0.6  0.43  0.08  4.67
 1982 173   259   249  20.8 89.66  95.7  94.8  0.00 10.33  84.5   1.2   8.2  68.0   0.80   0.02   6.43 1.099 0.594 1.271 0.617 0.401   1.90   0.00   0.26  0.40  0.99  0.76   0.5  0.43  0.12  4.39
 1982 174   260   250  21.7 90.23  96.5  95.7  0.00 10.31  85.4   1.1   8.2  68.9   0.81   0.01   6.70 1.099 0.605 1.269 0.600 0.400   1.90   0.00   0.27  0.40  1.00  0.76   0.5  0.42  0.19  4.54
