$GROWTH ASPECTS SECONDARY OUTPUT FILE

*DSSAT Cropping System Model Ver. 4.8.5.000 -release  SEP 11, 2025 22:39:39

*RUN   1        : DRYLAND  - 0 KG N/HA      CSCER048 KSAS8101    1
 MODEL          : CSCER048 - Wheat
 EXPERIMENT     : KSAS8101 WH N RESPONSE,KANSAS STATE  3FE(N)*2IR  (DSSAT3)
 DATA PATH      :
 TREATMENT  1   : DRYLAND  - 0 KG N/HA      CSCER048
  
@YEAR DOY   DAS   DAP TMEAN  GSTD  RSTD LAIPD LAISD  LAID  CHTD SDWAD SNWLD SNWSD  H#AD  HWUD SHRTD  PTFD  RDPD  RL1D  RL2D  RL3D  RL4D  RL5D  RL6D  RL7D  RL8D  RL9D RL10D
 1981 289    10     0  12.8     0  1.03     0  0.00     0     0  46.0     0     0     0     0  0.00  0.00 0.055  0.00  0.00  0.00  0.00  0.00  0.00  0.00  0.00  0.00  0.00
 1981 290    11     1  16.1 5.580  1.03     0  0.00     0     0  46.0     0     0     0     0  0.00  0.00 0.055  0.00  0.00  0.00  0.00  0.00  0.00  0.00  0.00  0.00  0.00
 1981 291    12     2   9.4 6.540  1.03     0  0.00     0     0  45.3     0     0     0     0  0.00  0.00 0.069  0.01  0.00  0.00  0.00  0.00  0.00  0.00  0.00  0.00  0.00
 1981 292    13     3  12.2 7.812  1.03     0  0.00     0     0  44.4     0 .0004     0     0  0.00  0.00 0.087  0.01  0.01  0.00  0.00  0.00  0.00  0.00  0.00  0.00  0.00
 1981 293    14     4  17.5 9.688  1.03     0  0.00     0     0  43.0     0 .0019     0     0  0.00  0.00 0.114  0.02  0.02  0.00  0.00  0.00  0.00  0.00  0.00  0.00  0.00
 1981 294    15     5  11.7 10.00  1.03     0  0.00     0     0  42.1     0 .0036     0     0  0.00  0.00 0.131  0.02  0.03  0.00  0.00  0.00  0.00  0.00  0.00  0.00  0.00
 1981 295    16     6   6.2 10.13  1.03 .0026  0.00 .0026 0.500  40.7     0 .0048     0     0  0.22  0.75 0.141  0.03  0.03  0.00  0.00  0.00  0.00  0.00  0.00  0.00  0.00
 1981 296    17     7   1.9 10.17  1.03 .0028  0.00 .0028 0.856  40.5     0 .0053     0     0  0.26  0.75 0.143  0.03  0.03  0.00  0.00  0.00  0.00  0.00  0.00  0.00  0.00
 1981 297    18     8   6.1 10.30  1.03 .0054  0.00 .0054 0.859  39.1     0 .0066     0     0  0.45  0.75 0.153  0.03  0.03  0.00  0.00  0.00  0.00  0.00  0.00  0.00  0.00
 1981 298    19     9   8.4 10.47  1.04 .0101  0.00 .0101 0.873  36.8     0 .0087     0     0  0.77  0.75 0.163  0.03  0.04  0.00  0.00  0.00  0.00  0.00  0.00  0.00  0.00
 1981 299    20    10   7.8 10.64  1.04 .0143  0.00 .0143 0.897  34.9     0 .0109     0     0  1.13  0.75 0.173  0.03  0.04  0.00  0.00  0.00  0.00  0.00  0.00  0.00  0.00
 1981 300    21    11  13.7 10.93  1.04 .0236  0.00 .0236 0.923  30.8     0 .0150     0     0  1.69  0.75 0.190  0.03  0.05  0.00  0.00  0.00  0.00  0.00  0.00  0.00  0.00
 1981 301    22    12  16.2 11.27  1.04 .0359  0.00 .0359 0.976  25.6     0 .0205     0     0  2.32  0.75 0.210  0.04  0.05  0.00  0.00  0.00  0.00  0.00  0.00  0.00  0.00
 1981 302    23    13  17.5 11.63  1.04 .0496  0.00 .0496 1.040  19.8     0 .0274     0     0  2.98  0.75 0.232  0.04  0.06  0.00  0.00  0.00  0.00  0.00  0.00  0.00  0.00
 1981 303    24    14  16.1 11.97  1.05 .0623  0.00 .0623 1.109  14.7     0 .0347     0     0  3.20  0.75 0.252  0.04  0.07  0.01  0.00  0.00  0.00  0.00  0.00  0.00  0.00
 1981 304    25    15  13.9 12.13  1.05 .0684  0.00 .0684 1.172  12.1     0 .0416     0     0  3.19  0.74 0.270  0.05  0.07  0.01  0.00  0.00  0.00  0.00  0.00  0.00  0.00
 1981 305    26    16  12.2 12.26  1.05 .0732  0.00 .0732 1.225  10.7     0 .0483     0     0  3.16  0.74 0.285  0.05  0.07  0.01  0.00  0.00  0.00  0.00  0.00  0.00  0.00
 1981 306    27    17  10.2 12.37  1.05 .0772  0.00 .0772 1.273   9.9     0 .0543     0     0  3.12  0.74 0.298  0.05  0.08  0.01  0.00  0.00  0.00  0.00  0.00  0.00  0.00
 1981 307    28    18  11.4 12.49  1.05 .0816  0.00 .0816 1.315   9.6     0 .0613     0     0  3.19  0.74 0.312  0.05  0.08  0.02  0.00  0.00  0.00  0.00  0.00  0.00  0.00
 1981 308    29    19  10.2 12.60  1.06 .0857  0.00 .0857 1.365   9.4     0 .0680     0     0  3.23  0.74 0.321  0.05  0.08  0.02  0.00  0.00  0.00  0.00  0.00  0.00  0.00
 1981 309    30    20  10.6 12.71  1.06 .0900  0.00 .0900 1.413   9.4     0 .0752     0     0  3.38  0.74 0.329  0.05  0.08  0.02  0.00  0.00  0.00  0.00  0.00  0.00  0.00
 1981 310    31    21   6.7 12.78  1.06 .0918  0.00 .0918 1.465   9.4     0 .0802     0     0  3.52  0.74 0.335  0.06  0.09  0.03  0.00  0.00  0.00  0.00  0.00  0.00  0.00
 1981 311    32    22   9.7 12.88  1.06 .0957  0.00 .0957 1.500   9.3     0 .0881     0     0  3.61  0.74 0.343  0.06  0.09  0.03  0.00  0.00  0.00  0.00  0.00  0.00  0.00
 1981 312    33    23  10.9 13.00  1.06 0.100  0.00 0.100 1.556   9.2     0 .0976     0     0  3.61  0.75 0.352  0.06  0.09  0.03  0.00  0.00  0.00  0.00  0.00  0.00  0.00
 1981 313    34    24   2.5 13.02  1.07 0.100  0.00 0.100 1.622   9.2     0 0.100     0     0  3.67  0.75 0.354  0.06  0.09  0.04  0.00  0.00  0.00  0.00  0.00  0.00  0.00
 1981 314    35    25   5.6 13.08  1.07 0.102  0.00 0.102 1.638   9.2     0 0.105     0     0  3.77  0.75 0.358  0.07  0.10  0.04  0.00  0.00  0.00  0.00  0.00  0.00  0.00
 1981 315    36    26   7.5 13.16  1.07 0.105  0.00 0.105 1.676   9.2     0 0.112     0     0  3.86  0.75 0.365  0.07  0.10  0.05  0.00  0.00  0.00  0.00  0.00  0.00  0.00
 1981 316    37    27  10.9 13.27  1.07 0.110  0.00 0.110 1.730   9.2     0 0.124     0     0  3.93  0.75 0.374  0.07  0.11  0.05  0.00  0.00  0.00  0.00  0.00  0.00  0.00
 1981 317    38    28  10.6 13.38  1.08 0.115  0.00 0.115 1.815   9.2     0 0.136     0     0  4.00  0.75 0.382  0.08  0.11  0.06  0.00  0.00  0.00  0.00  0.00  0.00  0.00
 1981 318    39    29  13.0 13.52  1.08 0.122  0.00 0.122 1.899   9.2     0 0.153     0     0  4.05  0.75 0.393  0.08  0.12  0.06  0.01  0.00  0.00  0.00  0.00  0.00  0.00
 1981 319    40    30  15.0 13.68  1.09 0.129  0.00 0.129 2.006   9.2     0 0.172     0     0  4.10  0.75 0.405  0.09  0.12  0.06  0.01  0.00  0.00  0.00  0.00  0.00  0.00
 1981 320    41    31  17.5 13.86  1.09 0.138  0.00 0.138 2.131   9.2     0 0.196     0     0  4.16  0.75 0.420  0.09  0.12  0.07  0.01  0.00  0.00  0.00  0.00  0.00  0.00
 1981 321    42    32  12.8 14.00  1.10 0.144  0.00 0.144 2.274   9.2     0 0.215     0     0  4.22  0.75 0.430  0.10  0.13  0.08  0.01  0.00  0.00  0.00  0.00  0.00  0.00
 1981 322    43    33  14.1 14.15  1.10 0.152  0.00 0.152 2.378   9.2     0 0.237     0     0  4.26  0.75 0.442  0.10  0.13  0.08  0.01  0.00  0.00  0.00  0.00  0.00  0.00
 1981 323    44    34   4.1 14.19  1.10 0.153  0.00 0.152 2.495   9.2 0.219 0.243     0     0  4.26  0.75 0.445  0.10  0.13  0.08  0.01  0.00  0.00  0.00  0.00  0.00  0.00
 1981 324    45    35   0.0 14.19  1.10 0.153  0.00 0.152 2.529   9.2 0.219 0.243     0     0  4.26  0.75 0.445  0.10  0.13  0.08  0.01  0.00  0.00  0.00  0.00  0.00  0.00
 1981 325    46    36   2.5 14.22  1.10 0.154  0.00 0.152 2.529   9.2 0.351 0.248     0     0  4.28  0.75 0.447  0.10  0.14  0.08  0.01  0.00  0.00  0.00  0.00  0.00  0.00
 1981 326    47    37   7.0 14.29  1.10 0.157  0.00 0.153 2.552   9.2 0.718 0.259     0     0  4.30  0.75 0.453  0.11  0.14  0.09  0.01  0.00  0.00  0.00  0.00  0.00  0.00
 1981 327    48    38  10.6 14.40  1.11 0.163  0.01 0.156 2.618   9.2 1.276 0.278     0     0  4.33  0.75 0.462  0.11  0.15  0.09  0.01  0.00  0.00  0.00  0.00  0.00  0.00
 1981 328    49    39   6.4 14.47  1.11 0.165  0.01 0.157 2.724   9.2 1.615 0.290     0     0  4.36  0.75 0.467  0.12  0.15  0.10  0.02  0.00  0.00  0.00  0.00  0.00  0.00
 1981 329    50    40  12.2 14.60  1.12 0.172  0.01 0.161 2.789   9.2 2.262 0.313     0     0  4.38  0.75 0.477  0.12  0.16  0.10  0.02  0.00  0.00  0.00  0.00  0.00  0.00
 1981 330    51    41   6.7 14.67  1.12 0.175  0.01 0.161 2.919   9.2 2.615 0.327     0     0  4.39  0.75 0.482  0.12  0.16  0.11  0.02  0.00  0.00  0.00  0.00  0.00  0.00
 1981 331    52    42  -0.8 14.67  1.12 0.175  0.01 0.161 2.990   9.2 2.615 0.327     0     0  4.39  0.75 0.482  0.12  0.16  0.11  0.02  0.00  0.00  0.00  0.00  0.00  0.00
 1981 332    53    43   2.5 14.69  1.12 0.175  0.01 0.161 2.990   9.2 2.748 0.332     0     0  4.40  0.76 0.484  0.12  0.16  0.11  0.02  0.00  0.00  0.00  0.00  0.00  0.00
 1981 333    54    44   3.0 14.73  1.12 0.176  0.02 0.161 3.019   9.2 2.910 0.339     0     0  4.41  0.76 0.487  0.13  0.16  0.11  0.02  0.00  0.00  0.00  0.00  0.00  0.00
 1981 334    55    45   5.9 14.79  1.13 0.178  0.02 0.162 3.055   9.2 3.221 0.351     0     0  4.41  0.76 0.492  0.13  0.16  0.11  0.02  0.00  0.00  0.00  0.00  0.00  0.00
 1981 335    56    46   2.2 14.81  1.13 0.178  0.02 0.161 3.127   9.2 3.339 0.356     0     0  4.41  0.76 0.493  0.13  0.17  0.11  0.02  0.00  0.00  0.00  0.00  0.00  0.00
 1981 336    57    47   3.6 14.85  1.13 0.179  0.02 0.161 3.155   9.2 3.530 0.364     0     0  4.43  0.76 0.496  0.13  0.17  0.11  0.02  0.00  0.00  0.00  0.00  0.00  0.00
 1981 337    58    48   4.5 14.90  1.13 0.181  0.02 0.161 3.202   9.2 3.767 0.374     0     0  4.45  0.76 0.500  0.14  0.17  0.12  0.02  0.00  0.00  0.00  0.00  0.00  0.00
 1981 338    59    49   3.9 14.94  1.13 0.182  0.02 0.161 3.262   9.2 3.975 0.383     0     0  4.47  0.76 0.503  0.14  0.18  0.12  0.02  0.00  0.00  0.00  0.00  0.00  0.00
 1981 339    60    50   3.9 14.98  1.13 0.183  0.02 0.161 3.316   9.2 4.182 0.392     0     0  4.48  0.76 0.507  0.14  0.18  0.12  0.02  0.00  0.00  0.00  0.00  0.00  0.00
 1981 340    61    51   8.9 15.07  1.14 0.189  0.02 0.165 3.372   9.2 4.656 0.414     0     0  4.49  0.76 0.514  0.14  0.18  0.13  0.03  0.00  0.00  0.00  0.00  0.00  0.00
 1981 341    62    52  11.7 15.19  1.15 0.200  0.03 0.171 3.503   9.2 5.550 0.443     0     0  4.50  0.76 0.523  0.15  0.19  0.13  0.03  0.01  0.00  0.00  0.00  0.00  0.00
 1981 342    63    53   3.7 15.23  1.15 0.201  0.03 0.171 3.678   9.2 5.829 0.453     0     0  4.52  0.76 0.526  0.15  0.19  0.14  0.03  0.01  0.00  0.00  0.00  0.00  0.00
 1981 343    64    54   2.2 15.26  1.15 0.202  0.03 0.171 3.733   9.2 6.002 0.459     0     0  4.52  0.76 0.528  0.16  0.19  0.14  0.03  0.01  0.00  0.00  0.00  0.00  0.00
 1981 344    65    55  -0.3 15.26  1.15 0.202  0.03 0.171 3.768   9.2 6.002 0.459     0     0  4.52  0.76 0.528  0.16  0.19  0.14  0.03  0.01  0.00  0.00  0.00  0.00  0.00
 1981 345    66    56   2.5 15.28  1.15 0.202  0.03 0.170 3.768   9.2 6.194 0.466     0     0  4.52  0.76 0.530  0.16  0.20  0.14  0.03  0.01  0.00  0.00  0.00  0.00  0.00
 1981 346    67    57   2.8 15.31  1.15 0.203  0.03 0.170 3.808   9.2 6.408 0.473     0     0  4.52  0.76 0.533  0.16  0.20  0.14  0.03  0.01  0.00  0.00  0.00  0.00  0.00
 1981 347    68    58   2.5 15.34  1.16 0.204  0.03 0.170 3.855   9.2 6.600 0.480     0     0  4.52  0.76 0.535  0.16  0.20  0.14  0.03  0.01  0.00  0.00  0.00  0.00  0.00
 1981 348    69    59   0.5 15.34  1.16 0.204  0.03 0.169 3.898   9.2 6.642 0.482     0     0  4.52  0.76 0.535  0.16  0.20  0.14  0.03  0.01  0.00  0.00  0.00  0.00  0.00
 1981 349    70    60   0.0 15.34  1.16 0.204  0.03 0.169 3.907   9.2 6.642 0.482     0     0  4.52  0.76 0.535  0.16  0.20  0.14  0.03  0.01  0.00  0.00  0.00  0.00  0.00
 1981 350    71    61  -4.7 15.34  1.16 0.204  0.03 0.169 3.907   9.2 6.642 0.482     0     0  4.52  0.76 0.535  0.16  0.20  0.14  0.03  0.01  0.00  0.00  0.00  0.00  0.00
 1981 351    72    62 -12.5 15.34  1.16 0.204  0.12 .0847 3.907   9.2 39.87 0.482     0     0  2.27  0.76 0.535  0.16  0.20  0.14  0.03  0.01  0.00  0.00  0.00  0.00  0.00
 1981 352    73    63 -13.6 15.34  1.16 0.204  0.18 .0237 3.907   9.2 63.79 0.482     0     0  0.65  0.76 0.535  0.16  0.20  0.14  0.03  0.01  0.00  0.00  0.00  0.00  0.00
 1981 353    74    64 -11.4 15.34  1.16 0.204  0.19 .0171 3.907   9.2 66.40 0.482     0     0  0.47  0.76 0.535  0.16  0.20  0.14  0.03  0.01  0.00  0.00  0.00  0.00  0.00
 1981 354    75    65  -4.2 15.34  1.16 0.204  0.19 .0171 3.907   9.2 66.40 0.482     0     0  0.47  0.76 0.535  0.16  0.20  0.14  0.03  0.01  0.00  0.00  0.00  0.00  0.00
 1981 355    76    66   2.0 15.36  1.16 0.204  0.19 .0175 3.907   9.2 66.40 0.487     0     0  0.47  0.76 0.537  0.16  0.20  0.14  0.03  0.01  0.00  0.00  0.00  0.00  0.00
 1981 356    77    67   1.7 15.38  1.16 0.204  0.19 .0178 3.946   9.2 66.40 0.492     0     0  0.47  0.76 0.538  0.16  0.20  0.14  0.03  0.01  0.00  0.00  0.00  0.00  0.00
 1981 357    78    68  -1.1 15.38  1.16 0.204  0.19 .0178 3.981   9.2 66.40 0.492     0     0  0.47  0.76 0.538  0.16  0.20  0.14  0.03  0.01  0.00  0.00  0.00  0.00  0.00
 1981 358    79    69  -0.3 15.38  1.16 0.204  0.19 .0178 3.981   9.2 66.40 0.492     0     0  0.47  0.76 0.538  0.16  0.20  0.14  0.03  0.01  0.00  0.00  0.00  0.00  0.00
 1981 359    80    70   1.6 15.40  1.16 0.205  0.19 .0180 3.981   9.2 66.40 0.496     0     0  0.48  0.76 0.540  0.16  0.20  0.14  0.03  0.01  0.00  0.00  0.00  0.00  0.00
 1981 360    81    71  -1.7 15.40  1.16 0.205  0.19 .0180 4.017   9.2 66.40 0.496     0     0  0.48  0.76 0.540  0.16  0.20  0.14  0.03  0.01  0.00  0.00  0.00  0.00  0.00
 1981 361    82    72  -3.1 15.40  1.16 0.205  0.19 .0180 4.017   9.2 66.40 0.496     0     0  0.48  0.76 0.540  0.16  0.20  0.14  0.03  0.01  0.00  0.00  0.00  0.00  0.00
 1981 362    83    73  -4.4 15.40  1.16 0.205  0.19 .0180 4.017   9.2 66.40 0.496     0     0  0.48  0.76 0.540  0.16  0.20  0.14  0.03  0.01  0.00  0.00  0.00  0.00  0.00
 1981 363    84    74  -3.6 15.40  1.16 0.205  0.19 .0180 4.017   9.2 66.40 0.496     0     0  0.48  0.76 0.540  0.16  0.20  0.14  0.03  0.01  0.00  0.00  0.00  0.00  0.00
 1981 364    85    75   1.7 15.42  1.16 0.205  0.19 .0183 4.017   9.2 66.40 0.501     0     0  0.48  0.76 0.541  0.16  0.20  0.14  0.03  0.01  0.00  0.00  0.00  0.00  0.00
 1981 365    86    76   0.0 15.42  1.16 0.205  0.19 .0183 4.054   9.2 66.40 0.501     0     0  0.48  0.76 0.541  0.16  0.20  0.14  0.03  0.01  0.00  0.00  0.00  0.00  0.00
 1982   1    87    77  -6.1 15.42  1.16 0.205  0.19 .0183 4.054   9.2 66.40 0.501     0     0  0.48  0.76 0.541  0.16  0.20  0.14  0.03  0.01  0.00  0.00  0.00  0.00  0.00
 1982   2    88    78   0.8 15.43  1.16 0.205  0.19 .0184 4.054   9.2 66.40 0.503     0     0  0.48  0.76 0.542  0.16  0.20  0.14  0.03  0.01  0.00  0.00  0.00  0.00  0.00
 1982   3    89    79  -6.3 15.43  1.16 0.205  0.19 .0184 4.073   9.2 66.40 0.503     0     0  0.48  0.76 0.542  0.16  0.20  0.14  0.03  0.01  0.00  0.00  0.00  0.00  0.00
 1982   4    90    80  -6.1 15.43  1.16 0.205  0.19 .0184 4.073   9.2 66.40 0.503     0     0  0.48  0.76 0.542  0.16  0.20  0.14  0.03  0.01  0.00  0.00  0.00  0.00  0.00
 1982   5    91    81  -1.6 15.43  1.16 0.205  0.19 .0184 4.073   9.2 66.40 0.503     0     0  0.48  0.76 0.542  0.16  0.20  0.14  0.03  0.01  0.00  0.00  0.00  0.00  0.00
 1982   6    92    82 -10.9 15.43  1.16 0.205  0.19 .0153 4.073   9.2 67.63 0.503     0     0  0.40  0.76 0.542  0.16  0.20  0.14  0.03  0.01  0.00  0.00  0.00  0.00  0.00
 1982   7    93    83 -11.4 15.43  1.16 0.205  0.19 .0110 4.073   9.2 69.32 0.503     0     0  0.30  0.76 0.542  0.16  0.20  0.14  0.03  0.01  0.00  0.00  0.00  0.00  0.00
 1982   8    94    84  -2.8 15.43  1.16 0.205  0.19 .0110 4.073   9.2 69.32 0.503     0     0  0.30  0.76 0.542  0.16  0.20  0.14  0.03  0.01  0.00  0.00  0.00  0.00  0.00
 1982   9    95    85  -8.4 15.43  1.16 0.205  0.19 .0110 4.073   9.2 69.32 0.503     0     0  0.30  0.76 0.542  0.16  0.20  0.14  0.03  0.01  0.00  0.00  0.00  0.00  0.00
 1982  10    96    86 -18.6 15.43  1.16 0.205  0.20 .0009 4.073   9.2 73.28 0.503     0     0  0.04  0.76 0.542  0.16  0.20  0.14  0.03  0.01  0.00  0.00  0.00  0.00  0.00
 1982  11    97    87 -13.4 15.43  1.16 0.205  0.20 .0009 4.073   9.2 73.28 0.503     0     0  0.04  0.76 0.542  0.16  0.20  0.14  0.03  0.01  0.00  0.00  0.00  0.00  0.00
 1982  12    98    88  -9.1 15.43  1.16 0.205  0.20 .0009 4.073   9.2 73.28 0.503     0     0  0.04  0.76 0.542  0.16  0.20  0.14  0.03  0.01  0.00  0.00  0.00  0.00  0.00
 1982  13    99    89 -14.5 15.43  1.16 0.205  0.20 .0009 4.073   9.2 73.28 0.503     0     0  0.04  0.76 0.542  0.16  0.20  0.14  0.03  0.01  0.00  0.00  0.00  0.00  0.00
 1982  14   100    90  -3.0 15.43  1.16 0.205  0.20 .0009 4.073   9.2 73.28 0.503     0     0  0.04  0.76 0.542  0.16  0.20  0.14  0.03  0.01  0.00  0.00  0.00  0.00  0.00
 1982  15   101    91  -1.4 15.43  1.16 0.205  0.20 .0009 4.073   9.2 73.28 0.503     0     0  0.04  0.76 0.542  0.16  0.20  0.14  0.03  0.01  0.00  0.00  0.00  0.00  0.00
 1982  16   102    92 -14.1 15.43  1.16 0.205  0.20 .0009 4.073   9.2 73.28 0.503     0     0  0.04  0.76 0.542  0.16  0.20  0.14  0.03  0.01  0.00  0.00  0.00  0.00  0.00
 1982  17   103    93  -8.7 15.43  1.16 0.205  0.20 .0009 4.073   9.2 73.28 0.503     0     0  0.04  0.76 0.542  0.16  0.20  0.14  0.03  0.01  0.00  0.00  0.00  0.00  0.00
 1982  18   104    94   0.3 15.43  1.16 0.205  0.20 .0010 4.073   9.2 73.28 0.504     0     0  0.04  0.76 0.542  0.16  0.20  0.14  0.03  0.01  0.00  0.00  0.00  0.00  0.00
 1982  19   105    95  -0.6 15.43  1.16 0.205  0.20 .0010 4.080   9.2 73.28 0.504     0     0  0.04  0.76 0.542  0.16  0.20  0.14  0.03  0.01  0.00  0.00  0.00  0.00  0.00
 1982  20   106    96  -3.3 15.43  1.16 0.205  0.20 .0010 4.080   9.2 73.28 0.504     0     0  0.04  0.76 0.542  0.16  0.20  0.14  0.03  0.01  0.00  0.00  0.00  0.00  0.00
 1982  21   107    97  -5.0 15.43  1.16 0.205  0.20 .0010 4.080   9.2 73.28 0.504     0     0  0.04  0.76 0.542  0.16  0.20  0.14  0.03  0.01  0.00  0.00  0.00  0.00  0.00
 1982  22   108    98  -2.2 15.43  1.16 0.205  0.20 .0010 4.080   9.2 73.28 0.504     0     0  0.04  0.76 0.542  0.16  0.20  0.14  0.03  0.01  0.00  0.00  0.00  0.00  0.00
 1982  23   109    99 -10.9 15.43  1.16 0.205  0.20 .0009 4.080   9.2 73.28 0.504     0     0  0.04  0.76 0.542  0.16  0.20  0.14  0.03  0.01  0.00  0.00  0.00  0.00  0.00
 1982  24   110   100  -7.5 15.43  1.16 0.205  0.20 .0009 4.080   9.2 73.28 0.504     0     0  0.04  0.76 0.542  0.16  0.20  0.14  0.03  0.01  0.00  0.00  0.00  0.00  0.00
 1982  25   111   101  -1.1 15.43  1.16 0.205  0.20 .0009 4.080   9.2 73.28 0.504     0     0  0.04  0.76 0.542  0.16  0.20  0.14  0.03  0.01  0.00  0.00  0.00  0.00  0.00
 1982  26   112   102   1.4 15.44  1.16 0.205  0.20 .0011 4.080   9.2 73.28 0.508     0     0  0.04  0.76 0.543  0.16  0.20  0.14  0.03  0.01  0.00  0.00  0.00  0.00  0.00
 1982  27   113   103   8.1 15.53  1.17 0.206  0.20 .0016 4.116   9.2 73.28 0.530     0     0  0.04  0.76 0.550  0.16  0.20  0.14  0.03  0.01  0.00  0.00  0.00  0.00  0.00
 1982  28   114   104   0.0 15.53  1.17 0.206  0.20 .0016 4.323   9.2 73.28 0.530     0     0  0.04  0.76 0.550  0.16  0.20  0.14  0.03  0.01  0.00  0.00  0.00  0.00  0.00
 1982  29   115   105   5.2 15.58  1.18 0.206  0.20 .0018 4.323   9.2 73.28 0.545     0     0  0.04  0.76 0.554  0.16  0.20  0.14  0.03  0.01  0.00  0.00  0.00  0.00  0.00
 1982  30   116   106   0.0 15.58  1.18 0.206  0.20 .0018 4.461   9.2 73.28 0.545     0     0  0.04  0.76 0.554  0.16  0.20  0.14  0.03  0.01  0.00  0.00  0.00  0.00  0.00
 1982  31   117   107  -7.2 15.58  1.18 0.206  0.20 .0018 4.461   9.2 73.28 0.545     0     0  0.04  0.76 0.554  0.16  0.20  0.14  0.03  0.01  0.00  0.00  0.00  0.00  0.00
 1982  32   118   108  -1.9 15.58  1.18 0.206  0.20 .0018 4.461   9.2 73.28 0.545     0     0  0.04  0.76 0.554  0.16  0.20  0.14  0.03  0.01  0.00  0.00  0.00  0.00  0.00
 1982  33   119   109  -3.9 15.58  1.18 0.206  0.20 .0018 4.461   9.2 73.28 0.545     0     0  0.04  0.76 0.554  0.16  0.20  0.14  0.03  0.01  0.00  0.00  0.00  0.00  0.00
 1982  34   120   110 -13.0 15.58  1.18 0.206  0.20 .0010 4.461   9.2 73.59 0.545     0     0  0.03  0.76 0.554  0.16  0.20  0.14  0.03  0.01  0.00  0.00  0.00  0.00  0.00
 1982  35   121   111 -17.0 15.58  1.18 0.206  0.20 .0010 4.461   9.2 73.59 0.545     0     0  0.03  0.76 0.554  0.16  0.20  0.14  0.03  0.01  0.00  0.00  0.00  0.00  0.00
 1982  36   122   112 -15.5 15.58  1.18 0.206  0.20 .0010 4.461   9.2 73.59 0.545     0     0  0.03  0.76 0.554  0.16  0.20  0.14  0.03  0.01  0.00  0.00  0.00  0.00  0.00
 1982  37   123   113 -13.8 15.58  1.18 0.206  0.20 .0010 4.461   9.2 73.59 0.545     0     0  0.03  0.76 0.554  0.16  0.20  0.14  0.03  0.01  0.00  0.00  0.00  0.00  0.00
 1982  38   124   114  -6.4 15.58  1.18 0.206  0.20 .0010 4.461   9.2 73.59 0.545     0     0  0.03  0.76 0.554  0.16  0.20  0.14  0.03  0.01  0.00  0.00  0.00  0.00  0.00
 1982  39   125   115  -8.1 15.58  1.18 0.206  0.20 .0010 4.461   9.2 73.59 0.545     0     0  0.03  0.76 0.554  0.16  0.20  0.14  0.03  0.01  0.00  0.00  0.00  0.00  0.00
 1982  40   126   116 -14.4 15.58  1.18 0.206  0.20 .0010 4.461   9.2 73.59 0.545     0     0  0.03  0.76 0.554  0.16  0.20  0.14  0.03  0.01  0.00  0.00  0.00  0.00  0.00
 1982  41   127   117 -11.6 15.58  1.18 0.206  0.20 .0010 4.461   9.2 73.59 0.545     0     0  0.03  0.76 0.554  0.16  0.20  0.14  0.03  0.01  0.00  0.00  0.00  0.00  0.00
 1982  42   128   118  -8.9 15.58  1.18 0.206  0.20 .0010 4.461   9.2 73.59 0.545     0     0  0.03  0.76 0.554  0.16  0.20  0.14  0.03  0.01  0.00  0.00  0.00  0.00  0.00
 1982  43   129   119  -2.2 15.58  1.18 0.206  0.20 .0010 4.461   9.2 73.59 0.545     0     0  0.03  0.76 0.554  0.16  0.20  0.14  0.03  0.01  0.00  0.00  0.00  0.00  0.00
 1982  44   130   120  -4.1 15.58  1.18 0.206  0.20 .0010 4.461   9.2 73.59 0.545     0     0  0.03  0.76 0.554  0.16  0.20  0.14  0.03  0.01  0.00  0.00  0.00  0.00  0.00
 1982  45   131   121   2.8 15.61  1.18 0.206  0.20 .0012 4.461   9.2 73.59 0.553     0     0  0.03  0.76 0.556  0.16  0.20  0.14  0.03  0.01  0.00  0.00  0.00  0.00  0.00
 1982  46   132   122   4.7 15.66  1.19 0.206  0.20 .0014 4.545   9.2 73.59 0.566     0     0  0.03  0.76 0.560  0.16  0.20  0.14  0.03  0.01  0.00  0.00  0.00  0.00  0.00
 1982  47   133   123   3.6 15.70  1.19 0.206  0.20 .0015 4.687   9.2 73.59 0.575     0     0  0.03  0.76 0.563  0.16  0.20  0.14  0.03  0.01  0.00  0.00  0.00  0.00  0.00
 1982  48   134   124   2.5 15.73  1.19 0.206  0.20 .0016 4.797   9.2 73.59 0.582     0     0  0.03  0.76 0.565  0.16  0.20  0.14  0.03  0.01  0.00  0.00  0.00  0.00  0.00
 1982  49   135   125   7.0 15.80  1.20 0.207  0.20 .0020 4.874   9.2 73.59 0.602     0     0  0.04  0.76 0.571  0.16  0.20  0.14  0.03  0.01  0.00  0.00  0.00  0.00  0.00
 1982  50   136   126   8.9 21.04  1.21 0.207  0.20 .0026 5.090   9.2 73.59 0.626     0     0  0.04  0.76 0.578  0.16  0.20  0.14  0.03  0.01  0.00  0.00  0.00  0.00  0.00
 1982  51   137   127  11.1 21.13  1.23 0.208  0.20 .0033 5.368   9.2 73.59 0.657     0     0  0.04  0.76 0.587  0.16  0.20  0.14  0.03  0.01  0.00  0.00  0.00  0.00  0.00
 1982  52   138   128  10.0 21.21  1.24 0.209  0.20 .0042 5.719   9.2 73.59 0.684     0     0  0.05  0.76 0.595  0.16  0.20  0.14  0.03  0.01  0.00  0.00  0.00  0.00  0.00
 1982  53   139   129  12.2 21.32  1.26 0.210  0.20 .0054 6.037   9.2 73.59 0.718     0     0  0.06  0.76 0.606  0.16  0.20  0.14  0.03  0.01  0.00  0.00  0.00  0.00  0.00
 1982  54   140   130   9.4 21.40  1.27 0.210  0.20 .0056 6.431   9.2 73.59 0.745     0     0  0.06  0.76 0.613  0.16  0.20  0.14  0.03  0.01  0.00  0.00  0.00  0.00  0.00
 1982  55   141   131   3.3 21.42  1.27 0.211  0.20 .0066 6.737   9.2 73.59 0.754     0     0  0.07  0.76 0.616  0.16  0.20  0.14  0.03  0.01  0.00  0.00  0.00  0.00  0.00
 1982  56   142   132  -1.4 21.42  1.27 0.211  0.20 .0066 6.846   9.2 73.59 0.754     0     0  0.07  0.76 0.616  0.16  0.20  0.14  0.03  0.01  0.00  0.00  0.00  0.00  0.00
 1982  57   143   133  -2.0 21.42  1.27 0.211  0.20 .0066 6.846   9.2 73.59 0.754     0     0  0.07  0.76 0.616  0.16  0.20  0.14  0.03  0.01  0.00  0.00  0.00  0.00  0.00
 1982  58   144   134   1.7 21.44  1.28 0.212  0.20 .0072 6.846   9.2 73.59 0.758     0     0  0.07  0.76 0.617  0.16  0.20  0.14  0.03  0.01  0.00  0.00  0.00  0.00  0.00
 1982  59   145   135   4.7 21.48  1.28 0.213  0.20 .0086 6.901   9.2 73.59 0.771     0     0  0.08  0.76 0.621  0.16  0.20  0.14  0.03  0.01  0.00  0.00  0.00  0.00  0.00
 1982  60   146   136   8.4 21.55  1.29 0.216  0.20 .0110 7.060   9.2 73.59 0.795     0     0  0.10  0.76 0.628  0.16  0.20  0.14  0.03  0.01  0.00  0.00  0.00  0.00  0.00
 1982  61   147   137   8.7 21.62  1.31 0.217  0.20 .0119 7.344   9.2 73.59 0.819     0     0  0.11  0.76 0.635  0.16  0.20  0.14  0.03  0.01  0.00  0.00  0.00  0.00  0.00
 1982  62   148   138  -0.2 21.62  1.31 0.217  0.20 .0119 7.640   9.2 73.59 0.819     0     0  0.11  0.77 0.635  0.16  0.20  0.14  0.03  0.01  0.00  0.00  0.00  0.00  0.00
 1982  63   149   139  -3.7 21.62  1.31 0.217  0.20 .0119 7.640   9.2 73.59 0.819     0     0  0.11  0.77 0.635  0.16  0.20  0.14  0.03  0.01  0.00  0.00  0.00  0.00  0.00
 1982  64   150   140  -4.2 21.62  1.31 0.217  0.20 .0119 7.640   9.2 73.59 0.819     0     0  0.11  0.77 0.635  0.16  0.20  0.14  0.03  0.01  0.00  0.00  0.00  0.00  0.00
 1982  65   151   141  -3.0 21.62  1.31 0.217  0.20 .0119 7.640   9.2 73.59 0.819     0     0  0.11  0.77 0.635  0.16  0.20  0.14  0.03  0.01  0.00  0.00  0.00  0.00  0.00
 1982  66   152   142  -3.0 21.62  1.31 0.217  0.20 .0119 7.640   9.2 73.59 0.819     0     0  0.11  0.77 0.635  0.16  0.20  0.14  0.03  0.01  0.00  0.00  0.00  0.00  0.00
 1982  67   153   143   2.5 21.64  1.31 0.218  0.20 .0132 7.640   9.2 73.59 0.826     0     0  0.12  0.77 0.637  0.16  0.20  0.14  0.03  0.01  0.00  0.00  0.00  0.00  0.00
 1982  68   154   144   1.4 21.65  1.31 0.218  0.20 .0136 7.730   9.2 73.59 0.830     0     0  0.13  0.77 0.638  0.16  0.20  0.14  0.03  0.01  0.00  0.00  0.00  0.00  0.00
 1982  69   155   145  11.1 21.75  1.33 0.222  0.20 .0174 7.781   9.2 73.59 0.861     0     0  0.16  0.77 0.648  0.16  0.20  0.14  0.03  0.01  0.00  0.00  0.00  0.00  0.00
 1982  70   156   146  10.0 21.83  1.34 0.226  0.20 .0215 8.185   9.2 73.59 0.889     0     0  0.19  0.77 0.656  0.16  0.20  0.14  0.03  0.01  0.00  0.00  0.00  0.00  0.00
 1982  71   157   147  12.8 21.94  1.36 0.229  0.20 .0244 8.553   9.2 73.59 0.925     0     0  0.21  0.77 0.666  0.16  0.20  0.14  0.03  0.01  0.00  0.00  0.00  0.00  0.00
 1982  72   158   148   8.0 22.01  1.37 0.236  0.20 .0313 9.027   9.2 73.59 0.948     0     0  0.26  0.77 0.673  0.16  0.20  0.14  0.03  0.01  0.00  0.00  0.00  0.00  0.00
 1982  73   159   149   7.8 22.07  1.38 0.237  0.20 .0321 9.327   9.2 73.59 0.970     0     0  0.27  0.77 0.679  0.16  0.20  0.14  0.03  0.01  0.00  0.00  0.00  0.00  0.00
 1982  74   160   150  10.0 22.16  1.40 0.240  0.20 .0351 9.620   9.2 73.59     1     0     0  0.29  0.77 0.688  0.16  0.20  0.14  0.03  0.01  0.00  0.00  0.00  0.00  0.00
 1982  75   161   151  13.0 22.27  1.42 0.251  0.20 .0462 9.998   9.2 73.59 1.037     0     0  0.37  0.77 0.698  0.17  0.21  0.15  0.03  0.01  0.00  0.00  0.00  0.00  0.00
 1982  76   162   152  13.9 22.38  1.44 0.264  0.20 .0595 10.50   9.2 73.59 1.077     0     0  0.47  0.77 0.710  0.17  0.21  0.15  0.03  0.01  0.00  0.00  0.00  0.00  0.00
 1982  77   163   153   9.8 22.51  1.46 0.266  0.20 .0616 11.03   9.2 73.59 1.106     0     0  0.48  0.77 0.718  0.17  0.21  0.15  0.03  0.01  0.00  0.00  0.00  0.00  0.00
 1982  78   164   154  16.1 22.71  1.48 0.283  0.20 .0780 11.41   9.2 73.59 1.154     0     0  0.60  0.77 0.731  0.17  0.21  0.15  0.03  0.01  0.00  0.00  0.00  0.00  0.00
 1982  79   165   155   8.3 22.81  1.49 0.304  0.20 0.099 12.03   9.2 73.59 1.179     0     0  0.77  0.77 0.738  0.18  0.22  0.16  0.03  0.01  0.00  0.00  0.00  0.00  0.00
 1982  80   166   156   2.5 22.85  1.50 0.306  0.20 0.101 12.36   9.2 73.59 1.187     0     0  0.87  0.77 0.740  0.18  0.22  0.16  0.04  0.02  0.00  0.00  0.00  0.00  0.00
 1982  81   167   157   3.9 22.90  1.50 0.311  0.20 0.106 12.46   9.2 73.59 1.200     0     0  1.03  0.77 0.743  0.19  0.23  0.16  0.04  0.02  0.00  0.00  0.00  0.00  0.00
 1982  82   168   158   7.8 22.99  1.52 0.332  0.20 0.128 12.61   9.2 73.59 1.226     0     0  1.14  0.78 0.749  0.20  0.23  0.17  0.04  0.02  0.00  0.00  0.00  0.00  0.00
 1982  83   169   159   6.6 23.08  1.53 0.348  0.20 0.143 12.92   9.2 73.59 1.248     0     0  1.32  0.78 0.755  0.20  0.24  0.17  0.04  0.02  0.00  0.00  0.00  0.00  0.00
 1982  84   170   160   3.9 23.13  1.53 0.354  0.20 0.150 13.19   9.2 73.59 1.262     0     0  1.50  0.78 0.758  0.21  0.25  0.18  0.04  0.02  0.00  0.00  0.00  0.00  0.00
 1982  85   171   161   3.0 23.17  1.54 0.358  0.20 0.153 13.35   9.2 73.59 1.273     0     0  1.64  0.78 0.761  0.22  0.26  0.18  0.04  0.02  0.00  0.00  0.00  0.00  0.00
 1982  86   172   162   5.6 23.24  1.55 0.371  0.20 0.166 13.47   9.2 73.59 1.294     0     0  1.81  0.78 0.765  0.23  0.27  0.19  0.04  0.03  0.00  0.00  0.00  0.00  0.00
 1982  87   173   163   6.9 23.32  1.56 0.392  0.20 0.187 13.70   9.2 73.59 1.322     0     0  1.94  0.78 0.771  0.24  0.27  0.19  0.05  0.03  0.00  0.00  0.00  0.00  0.00
 1982  88   174   164  10.3 23.45  1.58 0.429  0.20 0.225 13.98   9.2 73.59 1.364     0     0  2.02  0.78 0.779  0.24  0.28  0.20  0.05  0.03  0.00  0.00  0.00  0.00  0.00
 1982  89   175   165  15.0 23.61  1.60 0.484  0.20 0.279 14.41   9.2 73.59 1.427     0     0  2.21  0.77 0.792  0.26  0.29  0.21  0.05  0.03  0.00  0.00  0.00  0.00  0.00
 1982  90   176   166  10.9 23.71  1.62 0.517  0.20 0.312 15.04   9.2 73.59 1.475     0     0  2.39  0.75 0.800  0.27  0.31  0.22  0.05  0.04  0.00  0.00  0.00  0.00  0.00
 1982  91   177   167  13.9 23.83  1.64 0.557  0.20 0.352 15.50   9.2 73.59 1.541     0     0  2.55  0.75 0.812  0.29  0.33  0.23  0.06  0.04  0.00  0.00  0.00  0.00  0.00
 1982  92   178   168  17.0 23.97  1.67 0.602  0.20 0.398 16.08   9.2 73.59 1.626     0     0  2.66  0.75 0.826  0.31  0.34  0.24  0.06  0.04  0.00  0.00  0.00  0.00  0.00
 1982  93   179   169   7.5 24.02  1.69 0.616  0.21 0.410 16.81   9.2 74.01 1.665     0     0  2.79  0.74 0.832  0.33  0.36  0.26  0.06  0.05  0.01  0.00  0.00  0.00  0.00
 1982  94   180   170   5.2 24.06  1.69 0.624  0.21 0.417 17.13   9.2 74.29 1.695     0     0  2.89  0.74 0.836  0.34  0.38  0.27  0.07  0.05  0.01  0.00  0.00  0.00  0.00
 1982  95   181   171   3.6 24.09  1.70 0.628  0.21 0.420 17.35   9.2 74.30 1.716     0     0  2.92  0.75 0.839  0.35  0.39  0.27  0.07  0.05  0.01  0.00  0.00  0.00  0.00
 1982  96   182   172  -0.8 24.09  1.70 0.628  0.21 0.420 17.51   9.2 74.30 1.716     0     0  2.92  0.75 0.839  0.35  0.39  0.27  0.07  0.05  0.01  0.00  0.00  0.00  0.00
 1982  97   183   173   3.0 24.12  1.71 0.631  0.21 0.423 17.51   9.2 74.30 1.734     0     0  2.94  0.75 0.842  0.35  0.39  0.27  0.07  0.06  0.01  0.00  0.00  0.00  0.00
 1982  98   184   174   4.4 24.15  1.71 0.638  0.21 0.430 17.64   9.2 74.30 1.761     0     0  3.00  0.75 0.845  0.36  0.40  0.28  0.07  0.06  0.01  0.00  0.00  0.00  0.00
 1982  99   185   175   4.1 24.19  1.72 0.644  0.21 0.436 17.84   9.2 74.30 1.786     0     0  3.12  0.76 0.849  0.38  0.42  0.30  0.08  0.06  0.01  0.00  0.00  0.00  0.00
 1982 100   186   176   8.7 24.27  1.74 0.671  0.21 0.463 18.02   9.2 74.30 1.843     0     0  3.26  0.76 0.856  0.41  0.45  0.32  0.08  0.07  0.01  0.00  0.00  0.00  0.00
 1982 101   187   177  13.6 24.39  1.76 0.718  0.21 0.510 18.40   9.2 74.30 1.939     0     0  3.37  0.76 0.867  0.44  0.47  0.33  0.09  0.07  0.01  0.00  0.00  0.00  0.00
 1982 102   188   178  20.2 24.56  1.80 0.781  0.21 0.573 19.01   9.2 74.30 2.090     0     0  3.48  0.75 0.884  0.46  0.50  0.35  0.09  0.08  0.01  0.00  0.00  0.00  0.00
 1982 103   189   179  16.1 24.68  1.83 0.828  0.21 0.620 19.92   9.2 74.30 2.217     0     0  3.56  0.75 0.897  0.49  0.53  0.37  0.10  0.08  0.01  0.00  0.00  0.00  0.00
 1982 104   190   180  21.1 24.82  1.86 0.882  0.21 0.674 20.65   9.2 74.30 2.395     0     0  3.64  0.75 0.914  0.52  0.56  0.39  0.10  0.09  0.02  0.00  0.00  0.00  0.00
 1982 105   191   181  24.2 24.98  1.91 0.927  0.21 0.714 21.61   9.2 75.47 2.609     0     0  3.68  0.75 0.934  0.54  0.58  0.41  0.11  0.09  0.02  0.00  0.00  0.00  0.00
 1982 106   192   182  18.4 25.10  1.94 0.973  0.22 0.756 22.72   9.2 76.37 2.778     0     0  3.70  0.75 0.949  0.55  0.58  0.41  0.11  0.10  0.02  0.00  0.00  0.00  0.00
 1982 107   193   183  10.0 25.16  1.96 1.000  0.22 0.780 23.56   9.2 76.85 2.871     0     0  3.77  0.75 0.957  0.58  0.61  0.43  0.11  0.10  0.02  0.00  0.00  0.00  0.00
 1982 108   194   184  12.2 25.24  1.98 1.032  0.22 0.810 24.02   9.2 77.45 2.991     0     0  3.82  0.75 0.968  0.61  0.64  0.45  0.12  0.11  0.02  0.00  0.00  0.00  0.00
 1982 109   195   185  15.3 25.33  2.02 1.072  0.23 0.847 24.59   9.2 78.20 3.150     0     0  3.87  0.75 0.980  0.63  0.67  0.47  0.13  0.11  0.02  0.00  0.00  0.00  0.00
 1982 110   196   186   6.7 25.33  2.04 1.084  0.23 0.856 25.42   9.2 78.64 3.222     0     0  3.92  0.75 0.986  0.66  0.70  0.49  0.13  0.12  0.02  0.00  0.00  0.00  0.00
 1982 111   197   187   7.0 25.33  2.06 1.096  0.23 0.867 26.01   9.2 79.11 3.301     0     0  3.96  0.75 0.991  0.69  0.73  0.51  0.14  0.12  0.02  0.00  0.00  0.00  0.00
 1982 112   198   188   8.6 25.33  2.09 1.116  0.23 0.884 26.62   9.2 79.68 3.403     0     0  4.01  0.75 0.998  0.73  0.76  0.54  0.14  0.13  0.03  0.00  0.00  0.00  0.00
 1982 113   199   189  11.7 25.33  2.14 1.147  0.24 0.912 27.37   9.2 80.47 3.548     0     0  4.05  0.75 1.008  0.75  0.79  0.56  0.15  0.14  0.03  0.00  0.00  0.00  0.00
 1982 114   200   190  16.4 25.33  2.19 1.191  0.24 0.951 28.40   9.2 81.58 3.759     0     0  4.08  0.75 1.021  0.78  0.82  0.57  0.15  0.14  0.03  0.00  0.00  0.00  0.00
 1982 115   201   191  13.1 25.33  2.24 1.225  0.24 0.981 29.84   9.2 82.46 3.933     0     0  4.10  0.76 1.032  0.79  0.83  0.58  0.16  0.14  0.03  0.00  0.00  0.00  0.00
 1982 116   202   192  14.1 30.52  2.29 1.262  0.25 1.011 30.98   9.2 83.41 4.125     0     0  4.15  0.76 1.044  0.83  0.86  0.61  0.16  0.15  0.03  0.00  0.00  0.00  0.00
 1982 117   203   193  10.6 31.01  2.33 1.289  0.26 1.033 32.22   9.2 84.13 4.275     0     0  4.16  0.76 1.052  0.84  0.87  0.61  0.17  0.15  0.03  0.00  0.00  0.00  0.00
 1982 118   204   194   8.4 31.41  2.36 1.307  0.26 1.047 33.15   9.2 84.70 4.394     0     0  4.17  0.76 1.059  0.84  0.88  0.62  0.17  0.15  0.03  0.00  0.00  0.00  0.00
 1982 119   205   195  10.0 31.87  2.39 1.333  0.26 1.069 33.88   9.2 85.39 4.537     0     0  4.18  0.77 1.068  0.85  0.88  0.62  0.17  0.16  0.03  0.00  0.00  0.00  0.00
 1982 120   206   196  13.9 32.52  2.44 1.370  0.27 1.099 34.76   9.2 86.34 4.738     0     0  4.20  0.77 1.079  0.86  0.90  0.63  0.17  0.16  0.03  0.00  0.00  0.00  0.00
 1982 121   207   197  16.1 33.28  2.50 1.416  0.28 1.137 35.98   9.2 87.45 4.976     0     0  4.23  0.77 1.092  0.88  0.92  0.64  0.17  0.16  0.03  0.01  0.00  0.00  0.00
 1982 122   208   198  18.0 34.12  2.56 1.464  0.29 1.176 37.40   9.2 88.70 5.247     0     0  4.28  0.78 1.107  0.90  0.94  0.66  0.18  0.17  0.04  0.01  0.00  0.00  0.00
 1982 123   209   199  22.0 35.15  2.64 1.515  0.30 1.216 38.98   9.2 90.23 5.586     0     0  4.33  0.78 1.125  0.93  0.97  0.68  0.18  0.17  0.04  0.01  0.00  0.00  0.00
 1982 124   210   200  24.5 36.29  2.72 1.561  0.31 1.250 40.91   9.2 91.94 5.975     0     0  4.39  0.78 1.145  0.96  1.00  0.70  0.19  0.18  0.04  0.01  0.00  0.00  0.00
 1982 125   211   201  18.0 37.14  2.79 1.611  0.32 1.291 43.05   9.2 93.20 6.273     0     0  4.40  0.79 1.160  0.97  1.01  0.71  0.19  0.18  0.04  0.01  0.00  0.00  0.00
 1982 126   212   202  10.9 37.65  2.82 1.640  0.32 1.315 44.63   9.2 93.97 6.453     0     0  4.45  0.79 1.169  0.99  1.03  0.72  0.20  0.18  0.04  0.01  0.00  0.00  0.00
 1982 127   213   203  14.4 38.32  2.87 1.680  0.33 1.348 45.59   9.2 95.00 6.698     0     0  4.53  0.80 1.181  1.03  1.07  0.75  0.20  0.19  0.04  0.01  0.00  0.00  0.00
 1982 128   214   204  20.5 39.28  2.95 1.738  0.34 1.396 46.85   9.2 96.46 7.061     0     0  4.61  0.80 1.198  1.07  1.11  0.78  0.21  0.20  0.04  0.01  0.00  0.00  0.00
 1982 129   215   205  22.5 40.38  3.04 1.795  0.35 1.442 48.66   9.2 98.07 7.474     0     0  4.69  0.81 1.216  1.11  1.14  0.80  0.22  0.21  0.05  0.01  0.00  0.00  0.00
 1982 130   216   206  22.5 41.56  3.16 1.795  0.37 1.421 50.95   9.2 98.07 7.901     0     0  4.76  0.81 1.235  1.13  1.17  0.82  0.23  0.21  0.05  0.02  0.00  0.00  0.00
 1982 131   217   207  22.0 42.72  3.27 1.795  0.39 1.400 53.91   9.2 98.07 8.329     0     0  4.86  0.82 1.253  1.17  1.20  0.85  0.23  0.22  0.05  0.02  0.00  0.00  0.00
 1982 132   218   208  18.9 43.71  3.37 1.795  0.41 1.383 56.79   9.2 98.07 8.708     0     0  4.91  0.83 1.268  1.18  1.22  0.86  0.24  0.22  0.05  0.02  0.00  0.00  0.00
 1982 133   219   209  20.0 44.77  3.48 1.795  0.43 1.364 59.28   9.2 98.07 9.114     0     0  4.96  0.84 1.285  1.20  1.23  0.87  0.24  0.23  0.05  0.02  0.00  0.00  0.00
 1982 134   220   210  17.8 45.70  3.57 1.795  0.45 1.348 61.91   9.2 98.07 9.480     0     0  5.03  0.85 1.299  1.21  1.25  0.88  0.24  0.23  0.05  0.02  0.00  0.00  0.00
 1982 135   221   211  17.8 46.63  3.66 1.795  0.46 1.332 64.25   9.2 98.07 9.851     0     0  5.20  0.86 1.314  1.25  1.29  0.91  0.25  0.24  0.05  0.02  0.00  0.00  0.00
 1982 136   222   212  19.5 47.66  3.77 1.795  0.48 1.315 66.58   9.2 98.07 10.27     0     0  5.28  0.86 1.330  1.27  1.31  0.92  0.25  0.24  0.05  0.02  0.00  0.00  0.00
 1982 137   223   213  19.5 48.68  3.87 1.795  0.50 1.298 69.14   9.2 98.07 10.70     0     0  5.40  0.87 1.346  1.29  1.33  0.93  0.26  0.24  0.06  0.02  0.00  0.00  0.00
 1982 138   224   214  20.3 49.75  3.97 1.795  0.51 1.280 71.70   9.2 98.07 11.15     0     0  5.59  0.88 1.362  1.32  1.36  0.96  0.26  0.25  0.06  0.02  0.00  0.00  0.00
 1982 139   225   215  23.6 53.77  4.09 1.795  0.54 1.260 74.37   9.2 98.07 11.69     0     0  5.79  0.89 1.382  1.35  1.39  0.98  0.27  0.26  0.06  0.02  0.00  0.00  0.00
 1982 140   226   216  21.1 57.99  4.20 1.795  0.55 1.245 77.35   9.2 98.07 12.18     0     0  5.93  0.91 1.399  1.37  1.40  0.99  0.27  0.26  0.06  0.03  0.00  0.00  0.00
 1982 141   227   217  18.0 63.99  4.29 1.795  0.56 1.232 79.99   9.2 98.07 12.61     0     0  6.15  0.93 1.414  1.38  1.42  1.00  0.28  0.26  0.06  0.03  0.00  0.00  0.00
 1982 142   228   218  16.1 70.32  4.37 1.795  0.57 1.221 82.25   9.2 98.07 12.99     0     0  6.36  0.95 1.427  1.39  1.43  1.00  0.28  0.27  0.06  0.03  0.00  0.00  0.00
 1982 143   229   219  18.0 71.71  4.46 1.795  0.59 1.208 84.27   9.2 98.07 13.43 10669 .0000  6.67  0.97 1.442  1.40  1.44  1.01  0.28  0.27  0.06  0.03  0.00  0.00  0.00
 1982 144   230   220  18.7 73.14  4.55 1.795  0.60 1.196 86.52   9.2 98.07 13.88 10669 .0001  6.80  0.98 1.457  1.40  1.44  1.01  0.28  0.27  0.06  0.03  0.00  0.00  0.00
 1982 145   231   221  20.0 74.68  4.65 1.795  0.61 1.182 88.85   9.2 98.07 14.36 10669 .0004  6.99  0.98 1.474  1.41  1.44  1.01  0.28  0.27  0.06  0.03  0.00  0.00  0.00
 1982 146   232   222  16.4 75.94  4.74 1.795  0.62 1.171 91.35   9.2 98.07 14.76 10669 .0007  7.34  0.98 1.487  1.41  1.45  1.02  0.28  0.27  0.06  0.03  0.00  0.00  0.00
 1982 147   233   223  18.4 77.35  4.83 1.795  0.64 1.159 93.40   9.2 98.07 15.21 10669 .0011  7.72  0.98 1.502  1.42  1.45  1.02  0.28  0.27  0.06  0.03  0.00  0.00  0.00
 1982 148   234   224  23.3 79.15  4.94 1.795  0.65 1.144 95.70   9.2 98.07 15.78 10669 .0018  7.94  0.98 1.522  1.42  1.45  1.02  0.28  0.27  0.06  0.03  0.00  0.00  0.00
 1982 149   235   225  21.4 80.20  5.02 1.795  0.66 1.131 98.62   9.2 98.07 16.30 10669 .0026  8.24  0.98 1.539  1.42  1.46  1.02  0.28  0.27  0.06  0.03  0.00  0.00  0.00
 1982 150   236   226  20.5 80.61  5.06 1.795  0.67 1.126 100.0   9.2 98.07 16.81 10669 .0034  8.48  0.98 1.556  1.43  1.46  1.03  0.28  0.27  0.06  0.03  0.00  0.00  0.00
 1982 151   237   227  17.8 80.96  5.10 1.795  0.67 1.122 100.0   9.2 98.07 17.24 10669 .0041  8.67  0.98 1.571  1.43  1.46  1.03  0.28  0.27  0.06  0.03  0.00  0.00  0.00
 1982 152   238   228  12.8 81.22  5.12 1.795  0.68 1.119 100.0   9.2 98.07 17.56 10669 .0046  9.02  0.98 1.581  1.43  1.47  1.03  0.29  0.27  0.06  0.03  0.00  0.00  0.00
 1982 153   239   229  15.2 81.52  5.15 1.795  0.70 1.099 100.0   9.2 98.07 17.94 10669 .0051  9.16  0.98 1.594  1.43  1.47  1.03  0.29  0.27  0.06  0.03  0.00  0.00  0.00
 1982 154   240   230  15.0 81.82  5.18 1.795  0.72 1.075 100.0   9.2 98.07 18.31 10669 .0057  9.26  0.98 1.606  1.44  1.47  1.03  0.29  0.27  0.06  0.03  0.00  0.00  0.00
 1982 155   241   231  17.0 82.15  5.22 1.795  0.74 1.051 100.0   9.2 98.07 18.73 10669 .0064  9.44  0.98 1.620  1.44  1.47  1.03  0.29  0.27  0.06  0.03  0.00  0.00  0.00
 1982 156   242   232  17.8 82.50  5.25 1.795  0.77 1.024 100.0   9.2 98.07 19.17 10669 .0071  9.69  0.98 1.635  1.44  1.48  1.04  0.29  0.27  0.06  0.03  0.00  0.00  0.00
 1982 157   243   233  25.5 83.01  5.30 1.795  0.80     1 100.0   9.2 98.07 19.80 10669 .0081  9.89  0.98 1.656  1.44  1.48  1.04  0.29  0.28  0.06  0.03  0.00  0.00  0.00
 1982 158   244   234  20.2 83.41  5.34 1.795  0.84 0.956 100.0   9.2 98.07 20.31 10669 .0090 10.12  0.98 1.672  1.45  1.48  1.04  0.29  0.28  0.06  0.03  0.00  0.00  0.00
 1982 159   245   235  25.8 83.92  5.39 1.795  0.87 0.924 100.0   9.2 98.07 20.95 10669 .0100 10.28  0.98 1.693  1.45  1.48  1.04  0.29  0.28  0.06  0.03  0.00  0.00  0.00
 1982 160   246   236  22.8 84.37  5.44 1.795  0.91 0.883 100.0   9.2 98.07 21.52 10669 .0109 10.44  0.98 1.712  1.45  1.48  1.04  0.29  0.28  0.06  0.03  0.00  0.00  0.00
 1982 161   247   237  16.4 84.69  5.47 1.795  0.95 0.847 100.0   9.2 98.07 21.93 10669 .0116 10.59  0.98 1.725  1.45  1.49  1.04  0.29  0.28  0.06  0.03  0.00  0.00  0.00
 1982 162   248   238  18.0 85.05  5.51 1.795  0.99 0.804 100.0   9.2 98.07 22.38 10669 .0123 10.65  0.98 1.740  1.45  1.49  1.04  0.29  0.28  0.06  0.03  0.00  0.00  0.00
 1982 163   249   239  19.8 85.44  5.54 1.795  1.04 0.759 100.0   9.2 98.07 22.88 10669 .0131 10.73  0.98 1.757  1.45  1.49  1.04  0.29  0.28  0.06  0.03  0.00  0.00  0.00
 1982 164   250   240  20.9 85.86  5.59 1.795  1.08 0.713 100.0   9.2 98.07 23.40 10669 .0140 10.78  0.98 1.774  1.45  1.48  1.04  0.29  0.28  0.06  0.03  0.00  0.00  0.00
 1982 165   251   241  23.9 86.33  5.63 1.795  1.13 0.666 100.0   9.2 98.07 24.00 10669 .0149 10.82  0.98 1.793  1.45  1.48  1.04  0.29  0.28  0.06  0.03  0.00  0.00  0.00
 1982 166   252   242  22.5 86.77  5.68 1.795  1.18 0.614 100.0   9.2 98.07 24.56 10669 .0158 10.87  0.98 1.800  1.45  1.48  1.04  0.29  0.28  0.06  0.03  0.00  0.00  0.00
 1982 167   253   243  18.6 87.14  5.71 1.795  1.23 0.567 100.0   9.2 98.07 25.03 10669 .0166 10.92  0.98 1.800  1.45  1.48  1.04  0.29  0.28  0.06  0.03  0.00  0.00  0.00
 1982 168   254   244  21.1 87.56  5.76 1.795  1.27 0.526 100.0   9.2 98.07 25.55 10669 .0168 10.95  0.98 1.800  1.44  1.48  1.04  0.29  0.28  0.06  0.03  0.00  0.00  0.00
 1982 169   255   245  21.1 87.98  5.80 1.795  1.31 0.482 100.0   9.2 98.07 26.08 10669 .0171 10.97  0.98 1.800  1.44  1.48  1.04  0.29  0.28  0.06  0.03  0.00  0.00  0.00
 1982 170   256   246  19.2 88.36  5.84 1.795  1.36 0.439 100.0   9.2 98.07 26.56 10669 .0175 11.00  0.98 1.800  1.44  1.48  1.04  0.29  0.28  0.06  0.03  0.00  0.00  0.00
 1982 171   257   247  22.8 88.81  5.88 1.795  1.40 0.399 100.0   9.2 98.07 27.13 10669 .0177 11.02  0.98 1.800  1.44  1.48  1.04  0.29  0.28  0.06  0.03  0.00  0.00  0.00
 1982 172   258   248  22.2 89.25  5.92 1.795  1.44 0.355 100.0   9.2 98.07 27.68 10669 .0180 11.04  0.98 1.800  1.44  1.48  1.03  0.29  0.27  0.06  0.03  0.00  0.00  0.00
 1982 173   259   249  20.8 89.66  5.97 1.795  1.48 0.313 100.0   9.2 98.07 28.20 10669 .0182 11.06  0.98 1.800  1.44  1.47  1.03  0.29  0.27  0.06  0.03  0.00  0.00  0.00
 1982 174   260   250  21.7 90.23  6.02 1.795  1.52 0.273 100.0   9.2 98.07 28.74 10669 .0188 11.07  0.98 1.800  1.44  1.47  1.03  0.29  0.27  0.06  0.03  0.00  0.00  0.00

*DSSAT Cropping System Model Ver. 4.8.5.000 -release  SEP 11, 2025 22:39:39

*RUN   2        : DRYLAND  - 60 KG N/HA     CSCER048 KSAS8101    2
 MODEL          : CSCER048 - Wheat
 EXPERIMENT     : KSAS8101 WH N RESPONSE,KANSAS STATE  3FE(N)*2IR  (DSSAT3)
 DATA PATH      :
 TREATMENT  2   : DRYLAND  - 60 KG N/HA     CSCER048
  
@YEAR DOY   DAS   DAP TMEAN  GSTD  RSTD LAIPD LAISD  LAID  CHTD SDWAD SNWLD SNWSD  H#AD  HWUD SHRTD  PTFD  RDPD  RL1D  RL2D  RL3D  RL4D  RL5D  RL6D  RL7D  RL8D  RL9D RL10D
 1981 289    10     0  12.8     0  1.03     0  0.00     0     0  46.0     0     0     0     0  0.00  0.98 0.055  0.00  0.00  0.00  0.00  0.00  0.00  0.00  0.00  0.00  0.00
 1981 290    11     1  16.1 5.580  1.03     0  0.00     0     0  46.0     0     0     0     0  0.00  0.98 0.055  0.00  0.00  0.00  0.00  0.00  0.00  0.00  0.00  0.00  0.00
 1981 291    12     2   9.4 6.540  1.03     0  0.00     0     0  45.3     0     0     0     0  0.00  0.98 0.069  0.01  0.00  0.00  0.00  0.00  0.00  0.00  0.00  0.00  0.00
 1981 292    13     3  12.2 7.812  1.03     0  0.00     0     0  44.4     0 .0004     0     0  0.00  0.98 0.087  0.02  0.01  0.00  0.00  0.00  0.00  0.00  0.00  0.00  0.00
 1981 293    14     4  17.5 9.688  1.03     0  0.00     0     0  43.0     0 .0019     0     0  0.00  0.98 0.114  0.03  0.01  0.00  0.00  0.00  0.00  0.00  0.00  0.00  0.00
 1981 294    15     5  11.7 10.00  1.03     0  0.00     0     0  42.1     0 .0036     0     0  0.00  0.98 0.131  0.04  0.02  0.00  0.00  0.00  0.00  0.00  0.00  0.00  0.00
 1981 295    16     6   6.2 10.13  1.03 .0026  0.00 .0026 0.500  40.7     0 .0048     0     0  0.22  0.75 0.141  0.04  0.02  0.00  0.00  0.00  0.00  0.00  0.00  0.00  0.00
 1981 296    17     7   1.9 10.17  1.03 .0028  0.00 .0028 0.856  40.5     0 .0053     0     0  0.26  0.75 0.143  0.04  0.02  0.00  0.00  0.00  0.00  0.00  0.00  0.00  0.00
 1981 297    18     8   6.1 10.30  1.03 .0054  0.00 .0054 0.859  39.1     0 .0066     0     0  0.45  0.75 0.153  0.05  0.03  0.00  0.00  0.00  0.00  0.00  0.00  0.00  0.00
 1981 298    19     9   8.4 10.47  1.04 .0101  0.00 .0101 0.873  36.8     0 .0087     0     0  0.77  0.75 0.163  0.05  0.03  0.00  0.00  0.00  0.00  0.00  0.00  0.00  0.00
 1981 299    20    10   7.8 10.64  1.04 .0143  0.00 .0143 0.897  34.9     0 .0109     0     0  1.13  0.75 0.173  0.05  0.03  0.00  0.00  0.00  0.00  0.00  0.00  0.00  0.00
 1981 300    21    11  13.7 10.93  1.04 .0236  0.00 .0236 0.923  30.8     0 .0150     0     0  1.69  0.75 0.190  0.06  0.04  0.00  0.00  0.00  0.00  0.00  0.00  0.00  0.00
 1981 301    22    12  16.2 11.27  1.04 .0359  0.00 .0359 0.976  25.6     0 .0205     0     0  2.32  0.75 0.210  0.06  0.04  0.00  0.00  0.00  0.00  0.00  0.00  0.00  0.00
 1981 302    23    13  17.5 11.63  1.04 .0496  0.00 .0496 1.040  19.8     0 .0274     0     0  2.98  0.75 0.232  0.07  0.05  0.00  0.00  0.00  0.00  0.00  0.00  0.00  0.00
 1981 303    24    14  16.1 11.97  1.05 .0623  0.00 .0623 1.109  14.7     0 .0347     0     0  3.20  0.75 0.252  0.08  0.06  0.00  0.00  0.00  0.00  0.00  0.00  0.00  0.00
 1981 304    25    15  13.9 12.13  1.05 .0687  0.00 .0687 1.172  12.1     0 .0416     0     0  3.19  0.75 0.270  0.08  0.06  0.00  0.00  0.00  0.00  0.00  0.00  0.00  0.00
 1981 305    26    16  12.2 12.26  1.05 .0739  0.00 .0739 1.225  10.7     0 .0483     0     0  3.17  0.75 0.285  0.08  0.06  0.01  0.00  0.00  0.00  0.00  0.00  0.00  0.00
 1981 306    27    17  10.2 12.37  1.05 .0781  0.00 .0781 1.273   9.9     0 .0543     0     0  3.14  0.74 0.298  0.08  0.06  0.01  0.00  0.00  0.00  0.00  0.00  0.00  0.00
 1981 307    28    18  11.4 12.49  1.05 .0829  0.00 .0829 1.315   9.6     0 .0613     0     0  3.23  0.75 0.312  0.08  0.07  0.01  0.00  0.00  0.00  0.00  0.00  0.00  0.00
 1981 308    29    19  10.2 12.60  1.06 .0873  0.00 .0873 1.365   9.5     0 .0680     0     0  3.29  0.75 0.321  0.08  0.07  0.02  0.00  0.00  0.00  0.00  0.00  0.00  0.00
 1981 309    30    20  10.6 12.71  1.06 .0918  0.00 .0918 1.413   9.4     0 .0752     0     0  3.45  0.75 0.329  0.08  0.07  0.02  0.00  0.00  0.00  0.00  0.00  0.00  0.00
 1981 310    31    21   6.7 12.78  1.06 .0937  0.00 .0937 1.465   9.4     0 .0802     0     0  3.60  0.75 0.335  0.08  0.08  0.03  0.00  0.00  0.00  0.00  0.00  0.00  0.00
 1981 311    32    22   9.7 12.88  1.06 .0977  0.00 .0977 1.500   9.3     0 .0882     0     0  3.69  0.75 0.343  0.09  0.08  0.03  0.00  0.00  0.00  0.00  0.00  0.00  0.00
 1981 312    33    23  10.9 13.00  1.06 0.102  0.00 0.102 1.556   9.3     0 .0978     0     0  3.70  0.75 0.352  0.09  0.08  0.03  0.00  0.00  0.00  0.00  0.00  0.00  0.00
 1981 313    34    24   2.5 13.02  1.07 0.103  0.00 0.103 1.622   9.3     0 0.100     0     0  3.76  0.75 0.354  0.09  0.08  0.04  0.00  0.00  0.00  0.00  0.00  0.00  0.00
 1981 314    35    25   5.6 13.08  1.07 0.104  0.00 0.104 1.638   9.2     0 0.105     0     0  3.86  0.75 0.358  0.09  0.09  0.04  0.00  0.00  0.00  0.00  0.00  0.00  0.00
 1981 315    36    26   7.5 13.16  1.07 0.107  0.00 0.107 1.676   9.2     0 0.113     0     0  3.95  0.75 0.365  0.09  0.09  0.05  0.00  0.00  0.00  0.00  0.00  0.00  0.00
 1981 316    37    27  10.9 13.27  1.07 0.113  0.00 0.113 1.730   9.2     0 0.125     0     0  4.02  0.75 0.374  0.09  0.09  0.06  0.00  0.00  0.00  0.00  0.00  0.00  0.00
 1981 317    38    28  10.6 13.38  1.08 0.118  0.00 0.118 1.815   9.2     0 0.137     0     0  4.09  0.75 0.382  0.09  0.10  0.07  0.00  0.00  0.00  0.00  0.00  0.00  0.00
 1981 318    39    29  13.0 13.52  1.08 0.125  0.00 0.125 1.899   9.2     0 0.154     0     0  4.14  0.75 0.393  0.09  0.10  0.07  0.00  0.00  0.00  0.00  0.00  0.00  0.00
 1981 319    40    30  15.0 13.68  1.09 0.132  0.00 0.132 2.006   9.2     0 0.174     0     0  4.19  0.75 0.405  0.10  0.10  0.08  0.01  0.00  0.00  0.00  0.00  0.00  0.00
 1981 320    41    31  17.5 13.86  1.09 0.141  0.00 0.141 2.131   9.2     0 0.198     0     0  4.25  0.75 0.420  0.10  0.11  0.08  0.01  0.00  0.00  0.00  0.00  0.00  0.00
 1981 321    42    32  12.8 14.00  1.10 0.148  0.00 0.148 2.274   9.2     0 0.217     0     0  4.31  0.75 0.430  0.10  0.11  0.09  0.01  0.00  0.00  0.00  0.00  0.00  0.00
 1981 322    43    33  14.1 14.15  1.10 0.156  0.00 0.156 2.378   9.2     0 0.240     0     0  4.34  0.75 0.442  0.10  0.12  0.10  0.01  0.00  0.00  0.00  0.00  0.00  0.00
 1981 323    44    34   4.1 14.19  1.10 0.157  0.00 0.156 2.495   9.2 0.219 0.247     0     0  4.34  0.75 0.445  0.10  0.12  0.10  0.01  0.00  0.00  0.00  0.00  0.00  0.00
 1981 324    45    35   0.0 14.19  1.10 0.157  0.00 0.156 2.529   9.2 0.219 0.247     0     0  4.34  0.75 0.445  0.10  0.12  0.10  0.01  0.00  0.00  0.00  0.00  0.00  0.00
 1981 325    46    36   2.5 14.22  1.10 0.157  0.00 0.155 2.529   9.2 0.351 0.251     0     0  4.36  0.75 0.447  0.10  0.12  0.10  0.01  0.00  0.00  0.00  0.00  0.00  0.00
 1981 326    47    37   7.0 14.29  1.10 0.160  0.00 0.156 2.552   9.2 0.719 0.263     0     0  4.39  0.75 0.453  0.10  0.12  0.11  0.01  0.00  0.00  0.00  0.00  0.00  0.00
 1981 327    48    38  10.6 14.40  1.11 0.166  0.01 0.160 2.618   9.2 1.276 0.282     0     0  4.41  0.75 0.462  0.11  0.13  0.11  0.01  0.00  0.00  0.00  0.00  0.00  0.00
 1981 328    49    39   6.4 14.47  1.11 0.169  0.01 0.160 2.724   9.2 1.616 0.294     0     0  4.44  0.75 0.467  0.11  0.13  0.12  0.01  0.00  0.00  0.00  0.00  0.00  0.00
 1981 329    50    40  12.2 14.60  1.12 0.176  0.01 0.164 2.789   9.2 2.263 0.319     0     0  4.45  0.76 0.477  0.11  0.14  0.13  0.02  0.00  0.00  0.00  0.00  0.00  0.00
 1981 330    51    41   6.7 14.67  1.12 0.179  0.01 0.165 2.919   9.2 2.616 0.332     0     0  4.47  0.76 0.482  0.11  0.14  0.13  0.02  0.00  0.00  0.00  0.00  0.00  0.00
 1981 331    52    42  -0.8 14.67  1.12 0.179  0.01 0.165 2.990   9.2 2.616 0.332     0     0  4.47  0.76 0.482  0.11  0.14  0.13  0.02  0.00  0.00  0.00  0.00  0.00  0.00
 1981 332    53    43   2.5 14.69  1.12 0.179  0.01 0.165 2.990   9.2 2.749 0.338     0     0  4.48  0.76 0.484  0.11  0.14  0.13  0.02  0.00  0.00  0.00  0.00  0.00  0.00
 1981 333    54    44   3.0 14.73  1.12 0.180  0.02 0.165 3.019   9.2 2.911 0.344     0     0  4.48  0.76 0.487  0.12  0.14  0.14  0.02  0.00  0.00  0.00  0.00  0.00  0.00
 1981 334    55    45   5.9 14.79  1.13 0.182  0.02 0.165 3.055   9.2 3.222 0.357     0     0  4.48  0.76 0.492  0.12  0.14  0.14  0.02  0.00  0.00  0.00  0.00  0.00  0.00
 1981 335    56    46   2.2 14.81  1.13 0.182  0.02 0.165 3.127   9.2 3.339 0.362     0     0  4.48  0.76 0.493  0.12  0.14  0.14  0.02  0.00  0.00  0.00  0.00  0.00  0.00
 1981 336    57    47   3.6 14.85  1.13 0.183  0.02 0.165 3.155   9.2 3.531 0.370     0     0  4.50  0.76 0.496  0.12  0.15  0.14  0.02  0.00  0.00  0.00  0.00  0.00  0.00
 1981 337    58    48   4.5 14.90  1.13 0.184  0.02 0.165 3.202   9.2 3.768 0.380     0     0  4.52  0.76 0.500  0.12  0.15  0.15  0.02  0.00  0.00  0.00  0.00  0.00  0.00
 1981 338    59    49   3.9 14.94  1.13 0.186  0.02 0.165 3.262   9.2 3.975 0.390     0     0  4.54  0.76 0.503  0.12  0.15  0.16  0.02  0.00  0.00  0.00  0.00  0.00  0.00
 1981 339    60    50   3.9 14.98  1.13 0.187  0.02 0.165 3.316   9.2 4.183 0.399     0     0  4.54  0.76 0.507  0.12  0.15  0.16  0.02  0.00  0.00  0.00  0.00  0.00  0.00
 1981 340    61    51   8.9 15.07  1.14 0.193  0.02 0.169 3.372   9.2 4.657 0.422     0     0  4.56  0.76 0.514  0.12  0.16  0.16  0.02  0.00  0.00  0.00  0.00  0.00  0.00
 1981 341    62    52  11.7 15.19  1.15 0.204  0.03 0.175 3.503   9.2 5.552 0.452     0     0  4.57  0.76 0.523  0.13  0.16  0.17  0.03  0.00  0.00  0.00  0.00  0.00  0.00
 1981 342    63    53   3.7 15.23  1.15 0.205  0.03 0.175 3.678   9.2 5.832 0.462     0     0  4.58  0.76 0.526  0.13  0.16  0.18  0.03  0.00  0.00  0.00  0.00  0.00  0.00
 1981 343    64    54   2.2 15.26  1.15 0.205  0.03 0.175 3.733   9.2 6.005 0.468     0     0  4.59  0.76 0.528  0.13  0.16  0.18  0.03  0.01  0.00  0.00  0.00  0.00  0.00
 1981 344    65    55  -0.3 15.26  1.15 0.205  0.03 0.175 3.768   9.2 6.005 0.468     0     0  4.59  0.76 0.528  0.13  0.16  0.18  0.03  0.01  0.00  0.00  0.00  0.00  0.00
 1981 345    66    56   2.5 15.28  1.15 0.206  0.03 0.174 3.768   9.2 6.197 0.475     0     0  4.58  0.76 0.530  0.13  0.17  0.18  0.03  0.01  0.00  0.00  0.00  0.00  0.00
 1981 346    67    57   2.8 15.31  1.15 0.207  0.03 0.174 3.808   9.2 6.412 0.483     0     0  4.58  0.76 0.533  0.13  0.17  0.18  0.03  0.01  0.00  0.00  0.00  0.00  0.00
 1981 347    68    58   2.5 15.34  1.16 0.207  0.03 0.173 3.855   9.2 6.604 0.490     0     0  4.58  0.76 0.535  0.13  0.17  0.18  0.03  0.01  0.00  0.00  0.00  0.00  0.00
 1981 348    69    59   0.5 15.34  1.16 0.207  0.03 0.173 3.898   9.2 6.646 0.491     0     0  4.58  0.76 0.535  0.13  0.17  0.18  0.03  0.01  0.00  0.00  0.00  0.00  0.00
 1981 349    70    60   0.0 15.34  1.16 0.207  0.03 0.173 3.907   9.2 6.646 0.491     0     0  4.58  0.76 0.535  0.13  0.17  0.18  0.03  0.01  0.00  0.00  0.00  0.00  0.00
 1981 350    71    61  -4.7 15.34  1.16 0.207  0.03 0.173 3.907   9.2 6.646 0.491     0     0  4.58  0.76 0.535  0.13  0.17  0.18  0.03  0.01  0.00  0.00  0.00  0.00  0.00
 1981 351    72    62 -12.5 15.34  1.16 0.207  0.12 .0866 3.907   9.2 40.63 0.491     0     0  2.30  0.76 0.535  0.13  0.17  0.18  0.03  0.01  0.00  0.00  0.00  0.00  0.00
 1981 352    73    63 -13.6 15.34  1.16 0.207  0.18 .0243 3.907   9.2 65.09 0.491     0     0  0.66  0.76 0.535  0.13  0.17  0.18  0.03  0.01  0.00  0.00  0.00  0.00  0.00
 1981 353    74    64 -11.4 15.34  1.16 0.207  0.19 .0175 3.907   9.2 67.75 0.491     0     0  0.48  0.76 0.535  0.13  0.17  0.18  0.03  0.01  0.00  0.00  0.00  0.00  0.00
 1981 354    75    65  -4.2 15.34  1.16 0.207  0.19 .0175 3.907   9.2 67.75 0.491     0     0  0.48  0.76 0.535  0.13  0.17  0.18  0.03  0.01  0.00  0.00  0.00  0.00  0.00
 1981 355    76    66   2.0 15.36  1.16 0.208  0.19 .0179 3.907   9.2 67.75 0.497     0     0  0.48  0.76 0.537  0.13  0.17  0.18  0.03  0.01  0.00  0.00  0.00  0.00  0.00
 1981 356    77    67   1.7 15.38  1.16 0.208  0.19 .0181 3.946   9.2 67.75 0.501     0     0  0.48  0.76 0.538  0.13  0.17  0.18  0.03  0.01  0.00  0.00  0.00  0.00  0.00
 1981 357    78    68  -1.1 15.38  1.16 0.208  0.19 .0181 3.981   9.2 67.75 0.501     0     0  0.48  0.76 0.538  0.13  0.17  0.18  0.03  0.01  0.00  0.00  0.00  0.00  0.00
 1981 358    79    69  -0.3 15.38  1.16 0.208  0.19 .0181 3.981   9.2 67.75 0.501     0     0  0.48  0.76 0.538  0.13  0.17  0.18  0.03  0.01  0.00  0.00  0.00  0.00  0.00
 1981 359    80    70   1.6 15.40  1.16 0.208  0.19 .0184 3.981   9.2 67.75 0.506     0     0  0.48  0.76 0.540  0.13  0.17  0.18  0.03  0.01  0.00  0.00  0.00  0.00  0.00
 1981 360    81    71  -1.7 15.40  1.16 0.208  0.19 .0184 4.017   9.2 67.75 0.506     0     0  0.48  0.76 0.540  0.13  0.17  0.18  0.03  0.01  0.00  0.00  0.00  0.00  0.00
 1981 361    82    72  -3.1 15.40  1.16 0.208  0.19 .0184 4.017   9.2 67.75 0.506     0     0  0.48  0.76 0.540  0.13  0.17  0.18  0.03  0.01  0.00  0.00  0.00  0.00  0.00
 1981 362    83    73  -4.4 15.40  1.16 0.208  0.19 .0184 4.017   9.2 67.75 0.506     0     0  0.48  0.76 0.540  0.13  0.17  0.18  0.03  0.01  0.00  0.00  0.00  0.00  0.00
 1981 363    84    74  -3.6 15.40  1.16 0.208  0.19 .0184 4.017   9.2 67.75 0.506     0     0  0.48  0.76 0.540  0.13  0.17  0.18  0.03  0.01  0.00  0.00  0.00  0.00  0.00
 1981 364    85    75   1.7 15.42  1.16 0.209  0.19 .0187 4.017   9.2 67.75 0.511     0     0  0.49  0.76 0.541  0.13  0.17  0.18  0.03  0.01  0.00  0.00  0.00  0.00  0.00
 1981 365    86    76   0.0 15.42  1.16 0.209  0.19 .0187 4.054   9.2 67.75 0.511     0     0  0.49  0.76 0.541  0.13  0.17  0.18  0.03  0.01  0.00  0.00  0.00  0.00  0.00
 1982   1    87    77  -6.1 15.42  1.16 0.209  0.19 .0187 4.054   9.2 67.75 0.511     0     0  0.49  0.76 0.541  0.13  0.17  0.18  0.03  0.01  0.00  0.00  0.00  0.00  0.00
 1982   2    88    78   0.8 15.43  1.16 0.209  0.19 .0188 4.054   9.2 67.75 0.513     0     0  0.49  0.76 0.542  0.13  0.17  0.18  0.03  0.01  0.00  0.00  0.00  0.00  0.00
 1982   3    89    79  -6.3 15.43  1.16 0.209  0.19 .0188 4.073   9.2 67.75 0.513     0     0  0.49  0.76 0.542  0.13  0.17  0.18  0.03  0.01  0.00  0.00  0.00  0.00  0.00
 1982   4    90    80  -6.1 15.43  1.16 0.209  0.19 .0188 4.073   9.2 67.75 0.513     0     0  0.49  0.76 0.542  0.13  0.17  0.18  0.03  0.01  0.00  0.00  0.00  0.00  0.00
 1982   5    91    81  -1.6 15.43  1.16 0.209  0.19 .0188 4.073   9.2 67.75 0.513     0     0  0.49  0.76 0.542  0.13  0.17  0.18  0.03  0.01  0.00  0.00  0.00  0.00  0.00
 1982   6    92    82 -10.9 15.43  1.16 0.209  0.19 .0156 4.073   9.2 69.01 0.513     0     0  0.41  0.76 0.542  0.13  0.17  0.18  0.03  0.01  0.00  0.00  0.00  0.00  0.00
 1982   7    93    83 -11.4 15.43  1.16 0.209  0.20 .0112 4.073   9.2 70.73 0.513     0     0  0.30  0.76 0.542  0.13  0.17  0.18  0.03  0.01  0.00  0.00  0.00  0.00  0.00
 1982   8    94    84  -2.8 15.43  1.16 0.209  0.20 .0112 4.073   9.2 70.73 0.513     0     0  0.30  0.76 0.542  0.13  0.17  0.18  0.03  0.01  0.00  0.00  0.00  0.00  0.00
 1982   9    95    85  -8.4 15.43  1.16 0.209  0.20 .0112 4.073   9.2 70.73 0.513     0     0  0.30  0.76 0.542  0.13  0.17  0.18  0.03  0.01  0.00  0.00  0.00  0.00  0.00
 1982  10    96    86 -18.6 15.43  1.16 0.209  0.21 .0009 4.073   9.2 74.79 0.513     0     0  0.04  0.76 0.542  0.13  0.17  0.18  0.03  0.01  0.00  0.00  0.00  0.00  0.00
 1982  11    97    87 -13.4 15.43  1.16 0.209  0.21 .0009 4.073   9.2 74.79 0.513     0     0  0.04  0.76 0.542  0.13  0.17  0.18  0.03  0.01  0.00  0.00  0.00  0.00  0.00
 1982  12    98    88  -9.1 15.43  1.16 0.209  0.21 .0009 4.073   9.2 74.79 0.513     0     0  0.04  0.76 0.542  0.13  0.17  0.18  0.03  0.01  0.00  0.00  0.00  0.00  0.00
 1982  13    99    89 -14.5 15.43  1.16 0.209  0.21 .0009 4.073   9.2 74.79 0.513     0     0  0.04  0.76 0.542  0.13  0.17  0.18  0.03  0.01  0.00  0.00  0.00  0.00  0.00
 1982  14   100    90  -3.0 15.43  1.16 0.209  0.21 .0009 4.073   9.2 74.79 0.513     0     0  0.04  0.76 0.542  0.13  0.17  0.18  0.03  0.01  0.00  0.00  0.00  0.00  0.00
 1982  15   101    91  -1.4 15.43  1.16 0.209  0.21 .0009 4.073   9.2 74.79 0.513     0     0  0.04  0.76 0.542  0.13  0.17  0.18  0.03  0.01  0.00  0.00  0.00  0.00  0.00
 1982  16   102    92 -14.1 15.43  1.16 0.209  0.21 .0009 4.073   9.2 74.79 0.513     0     0  0.04  0.76 0.542  0.13  0.17  0.18  0.03  0.01  0.00  0.00  0.00  0.00  0.00
 1982  17   103    93  -8.7 15.43  1.16 0.209  0.21 .0009 4.073   9.2 74.79 0.513     0     0  0.04  0.76 0.542  0.13  0.17  0.18  0.03  0.01  0.00  0.00  0.00  0.00  0.00
 1982  18   104    94   0.3 15.43  1.16 0.209  0.21 .0010 4.073   9.2 74.79 0.514     0     0  0.04  0.76 0.542  0.13  0.17  0.18  0.03  0.01  0.00  0.00  0.00  0.00  0.00
 1982  19   105    95  -0.6 15.43  1.16 0.209  0.21 .0010 4.080   9.2 74.79 0.514     0     0  0.04  0.76 0.542  0.13  0.17  0.18  0.03  0.01  0.00  0.00  0.00  0.00  0.00
 1982  20   106    96  -3.3 15.43  1.16 0.209  0.21 .0010 4.080   9.2 74.79 0.514     0     0  0.04  0.76 0.542  0.13  0.17  0.18  0.03  0.01  0.00  0.00  0.00  0.00  0.00
 1982  21   107    97  -5.0 15.43  1.16 0.209  0.21 .0010 4.080   9.2 74.79 0.514     0     0  0.04  0.76 0.542  0.13  0.17  0.18  0.03  0.01  0.00  0.00  0.00  0.00  0.00
 1982  22   108    98  -2.2 15.43  1.16 0.209  0.21 .0010 4.080   9.2 74.79 0.514     0     0  0.04  0.76 0.542  0.13  0.17  0.18  0.03  0.01  0.00  0.00  0.00  0.00  0.00
 1982  23   109    99 -10.9 15.43  1.16 0.209  0.21 .0009 4.080   9.2 74.79 0.514     0     0  0.04  0.76 0.542  0.13  0.17  0.18  0.03  0.01  0.00  0.00  0.00  0.00  0.00
 1982  24   110   100  -7.5 15.43  1.16 0.209  0.21 .0009 4.080   9.2 74.79 0.514     0     0  0.04  0.76 0.542  0.13  0.17  0.18  0.03  0.01  0.00  0.00  0.00  0.00  0.00
 1982  25   111   101  -1.1 15.43  1.16 0.209  0.21 .0009 4.080   9.2 74.79 0.514     0     0  0.04  0.76 0.542  0.13  0.17  0.18  0.03  0.01  0.00  0.00  0.00  0.00  0.00
 1982  26   112   102   1.4 15.44  1.16 0.209  0.21 .0012 4.080   9.2 74.79 0.518     0     0  0.04  0.76 0.543  0.13  0.17  0.18  0.03  0.01  0.00  0.00  0.00  0.00  0.00
 1982  27   113   103   8.1 15.53  1.17 0.209  0.21 .0016 4.116   9.2 74.79 0.541     0     0  0.04  0.76 0.550  0.13  0.17  0.18  0.03  0.01  0.00  0.00  0.00  0.00  0.00
 1982  28   114   104   0.0 15.53  1.17 0.209  0.21 .0016 4.323   9.2 74.79 0.541     0     0  0.04  0.76 0.550  0.13  0.17  0.18  0.03  0.01  0.00  0.00  0.00  0.00  0.00
 1982  29   115   105   5.2 15.58  1.18 0.210  0.21 .0018 4.323   9.2 74.79 0.556     0     0  0.04  0.76 0.554  0.13  0.17  0.18  0.03  0.01  0.00  0.00  0.00  0.00  0.00
 1982  30   116   106   0.0 15.58  1.18 0.210  0.21 .0018 4.461   9.2 74.79 0.556     0     0  0.04  0.76 0.554  0.13  0.17  0.18  0.03  0.01  0.00  0.00  0.00  0.00  0.00
 1982  31   117   107  -7.2 15.58  1.18 0.210  0.21 .0018 4.461   9.2 74.79 0.556     0     0  0.04  0.76 0.554  0.13  0.17  0.18  0.03  0.01  0.00  0.00  0.00  0.00  0.00
 1982  32   118   108  -1.9 15.58  1.18 0.210  0.21 .0018 4.461   9.2 74.79 0.556     0     0  0.04  0.76 0.554  0.13  0.17  0.18  0.03  0.01  0.00  0.00  0.00  0.00  0.00
 1982  33   119   109  -3.9 15.58  1.18 0.210  0.21 .0018 4.461   9.2 74.79 0.556     0     0  0.04  0.76 0.554  0.13  0.17  0.18  0.03  0.01  0.00  0.00  0.00  0.00  0.00
 1982  34   120   110 -13.0 15.58  1.18 0.210  0.21 .0010 4.461   9.2 75.11 0.556     0     0  0.03  0.76 0.554  0.13  0.17  0.18  0.03  0.01  0.00  0.00  0.00  0.00  0.00
 1982  35   121   111 -17.0 15.58  1.18 0.210  0.21 .0010 4.461   9.2 75.11 0.556     0     0  0.03  0.76 0.554  0.13  0.17  0.18  0.03  0.01  0.00  0.00  0.00  0.00  0.00
 1982  36   122   112 -15.5 15.58  1.18 0.210  0.21 .0010 4.461   9.2 75.11 0.556     0     0  0.03  0.76 0.554  0.13  0.17  0.18  0.03  0.01  0.00  0.00  0.00  0.00  0.00
 1982  37   123   113 -13.8 15.58  1.18 0.210  0.21 .0010 4.461   9.2 75.11 0.556     0     0  0.03  0.76 0.554  0.13  0.17  0.18  0.03  0.01  0.00  0.00  0.00  0.00  0.00
 1982  38   124   114  -6.4 15.58  1.18 0.210  0.21 .0010 4.461   9.2 75.11 0.556     0     0  0.03  0.76 0.554  0.13  0.17  0.18  0.03  0.01  0.00  0.00  0.00  0.00  0.00
 1982  39   125   115  -8.1 15.58  1.18 0.210  0.21 .0010 4.461   9.2 75.11 0.556     0     0  0.03  0.76 0.554  0.13  0.17  0.18  0.03  0.01  0.00  0.00  0.00  0.00  0.00
 1982  40   126   116 -14.4 15.58  1.18 0.210  0.21 .0010 4.461   9.2 75.11 0.556     0     0  0.03  0.76 0.554  0.13  0.17  0.18  0.03  0.01  0.00  0.00  0.00  0.00  0.00
 1982  41   127   117 -11.6 15.58  1.18 0.210  0.21 .0010 4.461   9.2 75.11 0.556     0     0  0.03  0.76 0.554  0.13  0.17  0.18  0.03  0.01  0.00  0.00  0.00  0.00  0.00
 1982  42   128   118  -8.9 15.58  1.18 0.210  0.21 .0010 4.461   9.2 75.11 0.556     0     0  0.03  0.76 0.554  0.13  0.17  0.18  0.03  0.01  0.00  0.00  0.00  0.00  0.00
 1982  43   129   119  -2.2 15.58  1.18 0.210  0.21 .0010 4.461   9.2 75.11 0.556     0     0  0.03  0.76 0.554  0.13  0.17  0.18  0.03  0.01  0.00  0.00  0.00  0.00  0.00
 1982  44   130   120  -4.1 15.58  1.18 0.210  0.21 .0010 4.461   9.2 75.11 0.556     0     0  0.03  0.76 0.554  0.13  0.17  0.18  0.03  0.01  0.00  0.00  0.00  0.00  0.00
 1982  45   131   121   2.8 15.61  1.18 0.210  0.21 .0012 4.461   9.2 75.11 0.564     0     0  0.03  0.76 0.556  0.13  0.17  0.18  0.03  0.01  0.00  0.00  0.00  0.00  0.00
 1982  46   132   122   4.7 15.66  1.19 0.210  0.21 .0014 4.545   9.2 75.11 0.577     0     0  0.03  0.76 0.560  0.13  0.17  0.18  0.03  0.01  0.00  0.00  0.00  0.00  0.00
 1982  47   133   123   3.6 15.70  1.19 0.210  0.21 .0015 4.687   9.2 75.11 0.587     0     0  0.03  0.76 0.563  0.13  0.17  0.18  0.03  0.01  0.00  0.00  0.00  0.00  0.00
 1982  48   134   124   2.5 15.73  1.19 0.210  0.21 .0016 4.797   9.2 75.11 0.594     0     0  0.03  0.76 0.565  0.13  0.17  0.18  0.03  0.01  0.00  0.00  0.00  0.00  0.00
 1982  49   135   125   7.0 15.80  1.20 0.211  0.21 .0020 4.874   9.2 75.11 0.614     0     0  0.03  0.76 0.571  0.13  0.17  0.18  0.03  0.01  0.00  0.00  0.00  0.00  0.00
 1982  50   136   126   8.9 21.04  1.21 0.211  0.21 .0026 5.090   9.2 75.11 0.639     0     0  0.04  0.76 0.578  0.13  0.17  0.18  0.03  0.01  0.00  0.00  0.00  0.00  0.00
 1982  51   137   127  11.1 21.13  1.23 0.212  0.21 .0033 5.368   9.2 75.11 0.671     0     0  0.04  0.76 0.587  0.13  0.17  0.18  0.03  0.01  0.00  0.00  0.00  0.00  0.00
 1982  52   138   128  10.0 21.22  1.24 0.213  0.21 .0042 5.719   9.2 75.11 0.699     0     0  0.05  0.76 0.595  0.13  0.17  0.18  0.03  0.01  0.00  0.00  0.00  0.00  0.00
 1982  53   139   129  12.2 21.32  1.26 0.214  0.21 .0054 6.037   9.2 75.11 0.734     0     0  0.06  0.76 0.606  0.13  0.17  0.18  0.03  0.01  0.00  0.00  0.00  0.00  0.00
 1982  54   140   130   9.4 21.40  1.27 0.214  0.21 .0056 6.431   9.2 75.11 0.761     0     0  0.06  0.76 0.613  0.13  0.17  0.18  0.03  0.01  0.00  0.00  0.00  0.00  0.00
 1982  55   141   131   3.3 21.43  1.27 0.215  0.21 .0067 6.737   9.2 75.11 0.770     0     0  0.07  0.76 0.616  0.13  0.17  0.18  0.03  0.01  0.00  0.00  0.00  0.00  0.00
 1982  56   142   132  -1.4 21.43  1.27 0.215  0.21 .0067 6.846   9.2 75.11 0.770     0     0  0.07  0.76 0.616  0.13  0.17  0.18  0.03  0.01  0.00  0.00  0.00  0.00  0.00
 1982  57   143   133  -2.0 21.43  1.27 0.215  0.21 .0067 6.846   9.2 75.11 0.770     0     0  0.07  0.76 0.616  0.13  0.17  0.18  0.03  0.01  0.00  0.00  0.00  0.00  0.00
 1982  58   144   134   1.7 21.44  1.28 0.216  0.21 .0072 6.846   9.2 75.11 0.775     0     0  0.07  0.76 0.617  0.13  0.17  0.18  0.03  0.01  0.00  0.00  0.00  0.00  0.00
 1982  59   145   135   4.7 21.48  1.28 0.217  0.21 .0087 6.901   9.2 75.11 0.788     0     0  0.08  0.76 0.621  0.13  0.17  0.18  0.03  0.01  0.00  0.00  0.00  0.00  0.00
 1982  60   146   136   8.4 21.55  1.29 0.220  0.21 .0111 7.060   9.2 75.11 0.812     0     0  0.10  0.76 0.628  0.13  0.17  0.18  0.03  0.01  0.00  0.00  0.00  0.00  0.00
 1982  61   147   137   8.7 21.62  1.31 0.221  0.21 .0120 7.344   9.2 75.11 0.837     0     0  0.11  0.76 0.635  0.13  0.17  0.18  0.03  0.01  0.00  0.00  0.00  0.00  0.00
 1982  62   148   138  -0.2 21.62  1.31 0.221  0.21 .0120 7.640   9.2 75.11 0.837     0     0  0.11  0.77 0.635  0.13  0.17  0.18  0.03  0.01  0.00  0.00  0.00  0.00  0.00
 1982  63   149   139  -3.7 21.62  1.31 0.221  0.21 .0120 7.640   9.2 75.11 0.837     0     0  0.11  0.77 0.635  0.13  0.17  0.18  0.03  0.01  0.00  0.00  0.00  0.00  0.00
 1982  64   150   140  -4.2 21.62  1.31 0.221  0.21 .0120 7.640   9.2 75.11 0.837     0     0  0.11  0.77 0.635  0.13  0.17  0.18  0.03  0.01  0.00  0.00  0.00  0.00  0.00
 1982  65   151   141  -3.0 21.62  1.31 0.221  0.21 .0120 7.640   9.2 75.11 0.837     0     0  0.11  0.77 0.635  0.13  0.17  0.18  0.03  0.01  0.00  0.00  0.00  0.00  0.00
 1982  66   152   142  -3.0 21.62  1.31 0.221  0.21 .0120 7.640   9.2 75.11 0.837     0     0  0.11  0.77 0.635  0.13  0.17  0.18  0.03  0.01  0.00  0.00  0.00  0.00  0.00
 1982  67   153   143   2.5 21.64  1.31 0.222  0.21 .0133 7.640   9.2 75.11 0.844     0     0  0.12  0.77 0.637  0.13  0.17  0.18  0.03  0.01  0.00  0.00  0.00  0.00  0.00
 1982  68   154   144   1.4 21.66  1.31 0.222  0.21 .0137 7.730   9.2 75.11 0.848     0     0  0.13  0.77 0.638  0.13  0.17  0.18  0.03  0.01  0.00  0.00  0.00  0.00  0.00
 1982  69   155   145  11.1 21.75  1.33 0.226  0.21 .0175 7.781   9.2 75.11 0.880     0     0  0.16  0.77 0.648  0.13  0.17  0.18  0.03  0.01  0.00  0.00  0.00  0.00  0.00
 1982  70   156   146  10.0 21.83  1.34 0.230  0.21 .0217 8.185   9.2 75.11 0.908     0     0  0.19  0.77 0.656  0.13  0.17  0.19  0.03  0.01  0.00  0.00  0.00  0.00  0.00
 1982  71   157   147  12.8 21.94  1.36 0.233  0.21 .0245 8.553   9.2 75.11 0.946     0     0  0.21  0.77 0.666  0.13  0.17  0.19  0.03  0.01  0.00  0.00  0.00  0.00  0.00
 1982  72   158   148   8.0 22.01  1.37 0.240  0.21 .0315 9.027   9.2 75.11 0.969     0     0  0.26  0.77 0.673  0.13  0.17  0.19  0.03  0.01  0.00  0.00  0.00  0.00  0.00
 1982  73   159   149   7.8 22.07  1.38 0.241  0.21 .0323 9.327   9.2 75.11     1     0     0  0.26  0.77 0.679  0.13  0.17  0.19  0.03  0.01  0.00  0.00  0.00  0.00  0.00
 1982  74   160   150  10.0 22.16  1.40 0.244  0.21 .0353 9.620   9.2 75.11 1.021     0     0  0.29  0.77 0.688  0.13  0.17  0.19  0.03  0.01  0.00  0.00  0.00  0.00  0.00
 1982  75   161   151  13.0 22.27  1.42 0.255  0.21 .0465 9.998   9.2 75.11 1.060     0     0  0.37  0.77 0.698  0.13  0.17  0.19  0.03  0.01  0.00  0.00  0.00  0.00  0.00
 1982  76   162   152  13.9 22.39  1.44 0.269  0.21 .0599 10.50   9.2 75.11 1.101     0     0  0.46  0.77 0.710  0.13  0.17  0.19  0.03  0.01  0.00  0.00  0.00  0.00  0.00
 1982  77   163   153   9.8 22.51  1.46 0.271  0.21 .0620 11.03   9.2 75.11 1.131     0     0  0.48  0.77 0.718  0.13  0.17  0.19  0.03  0.01  0.00  0.00  0.00  0.00  0.00
 1982  78   164   154  16.1 22.71  1.48 0.287  0.21 .0785 11.41   9.2 75.11 1.180     0     0  0.59  0.77 0.731  0.14  0.17  0.20  0.03  0.01  0.00  0.00  0.00  0.00  0.00
 1982  79   165   155   8.3 22.82  1.49 0.308  0.21 0.100 12.03   9.2 75.11 1.206     0     0  0.76  0.77 0.738  0.14  0.18  0.20  0.04  0.01  0.00  0.00  0.00  0.00  0.00
 1982  80   166   156   2.5 22.85  1.50 0.310  0.21 0.102 12.36   9.2 75.11 1.214     0     0  0.86  0.77 0.740  0.14  0.18  0.21  0.04  0.02  0.00  0.00  0.00  0.00  0.00
 1982  81   167   157   3.9 22.90  1.50 0.315  0.21 0.107 12.46   9.2 75.11 1.227     0     0  1.02  0.77 0.743  0.15  0.18  0.21  0.04  0.02  0.00  0.00  0.00  0.00  0.00
 1982  82   168   158   7.8 23.00  1.52 0.337  0.21 0.128 12.61   9.2 75.11 1.253     0     0  1.12  0.78 0.749  0.15  0.19  0.22  0.04  0.02  0.00  0.00  0.00  0.00  0.00
 1982  83   169   159   6.6 23.08  1.53 0.352  0.21 0.144 12.92   9.2 75.11 1.276     0     0  1.30  0.78 0.755  0.15  0.19  0.22  0.04  0.02  0.00  0.00  0.00  0.00  0.00
 1982  84   170   160   3.9 23.13  1.53 0.359  0.21 0.150 13.19   9.2 75.11 1.290     0     0  1.48  0.78 0.758  0.16  0.20  0.23  0.04  0.03  0.00  0.00  0.00  0.00  0.00
 1982  85   171   161   3.0 23.17  1.54 0.363  0.21 0.154 13.35   9.2 75.11 1.302     0     0  1.61  0.78 0.761  0.16  0.20  0.24  0.05  0.03  0.00  0.00  0.00  0.00  0.00
 1982  86   172   162   5.6 23.24  1.55 0.376  0.21 0.167 13.47   9.2 75.11 1.323     0     0  1.79  0.78 0.765  0.17  0.21  0.25  0.05  0.03  0.00  0.00  0.00  0.00  0.00
 1982  87   173   163   6.9 23.33  1.56 0.396  0.21 0.187 13.70   9.2 75.11 1.351     0     0  1.91  0.78 0.771  0.18  0.21  0.25  0.05  0.04  0.00  0.00  0.00  0.00  0.00
 1982  88   174   164  10.3 23.46  1.58 0.435  0.21 0.226 13.98   9.2 75.11 1.394     0     0  2.00  0.78 0.779  0.18  0.22  0.26  0.05  0.04  0.00  0.00  0.00  0.00  0.00
 1982  89   175   165  15.0 23.65  1.60 0.498  0.21 0.289 14.41   9.2 75.11 1.458     0     0  2.22  0.78 0.792  0.19  0.23  0.27  0.06  0.04  0.00  0.00  0.00  0.00  0.00
 1982  90   176   166  10.9 23.77  1.62 0.540  0.21 0.331 15.04   9.2 75.11 1.507     0     0  2.48  0.77 0.800  0.20  0.24  0.29  0.06  0.05  0.00  0.00  0.00  0.00  0.00
 1982  91   177   167  13.9 23.93  1.64 0.593  0.21 0.385 15.50   9.2 75.11 1.575     0     0  2.72  0.77 0.812  0.22  0.26  0.30  0.07  0.06  0.01  0.00  0.00  0.00  0.00
 1982  92   178   168  17.0 24.12  1.67 0.657  0.21 0.449 16.08   9.2 75.11 1.664     0     0  2.89  0.77 0.826  0.23  0.27  0.32  0.07  0.07  0.01  0.00  0.00  0.00  0.00
 1982  93   179   169   7.5 24.20  1.69 0.681  0.21 0.471 16.81   9.2 75.52 1.706     0     0  3.11  0.77 0.832  0.25  0.29  0.34  0.08  0.08  0.01  0.00  0.00  0.00  0.00
 1982  94   180   170   5.2 24.26  1.69 0.693  0.21 0.481 17.13   9.2 75.81 1.738     0     0  3.27  0.77 0.836  0.27  0.31  0.35  0.09  0.09  0.01  0.00  0.00  0.00  0.00
 1982  95   181   171   3.6 24.30  1.70 0.699  0.21 0.487 17.35   9.2 75.82 1.762     0     0  3.32  0.77 0.839  0.28  0.32  0.36  0.09  0.09  0.01  0.00  0.00  0.00  0.00
 1982  96   182   172  -0.8 24.30  1.70 0.699  0.21 0.487 17.51   9.2 75.82 1.762     0     0  3.32  0.77 0.839  0.28  0.32  0.36  0.09  0.09  0.01  0.00  0.00  0.00  0.00
 1982  97   183   173   3.0 24.34  1.71 0.703  0.21 0.491 17.51   9.2 75.82 1.782     0     0  3.35  0.77 0.842  0.28  0.32  0.36  0.09  0.10  0.01  0.00  0.00  0.00  0.00
 1982  98   184   174   4.4 24.39  1.71 0.711  0.21 0.500 17.64   9.2 75.82 1.812     0     0  3.43  0.78 0.845  0.29  0.33  0.37  0.10  0.10  0.01  0.00  0.00  0.00  0.00
 1982  99   185   175   4.1 24.44  1.72 0.719  0.21 0.507 17.84   9.2 75.82 1.841     0     0  3.59  0.78 0.849  0.32  0.35  0.39  0.11  0.11  0.01  0.00  0.00  0.00  0.00
 1982 100   186   176   8.7 24.54  1.74 0.753  0.21 0.541 18.02   9.2 75.82 1.905     0     0  3.76  0.78 0.856  0.34  0.38  0.41  0.12  0.13  0.02  0.00  0.00  0.00  0.00
 1982 101   187   177  13.6 24.70  1.76 0.816  0.21 0.604 18.40   9.2 75.82 2.015     0     0  3.91  0.78 0.867  0.37  0.41  0.43  0.13  0.14  0.02  0.00  0.00  0.00  0.00
 1982 102   188   178  20.2 24.93  1.80 0.905  0.21 0.694 19.01   9.2 75.82 2.190     0     0  4.06  0.78 0.884  0.40  0.44  0.45  0.14  0.16  0.02  0.00  0.00  0.00  0.00
 1982 103   189   179  16.1 25.10  1.83 0.974  0.21 0.762 19.92   9.2 75.82 2.339     0     0  4.18  0.78 0.897  0.44  0.47  0.47  0.15  0.17  0.03  0.00  0.00  0.00  0.00
 1982 104   190   180  21.1 25.33  1.86 1.064  0.21 0.852 20.65   9.2 75.82 2.551     0     0  4.29  0.78 0.914  0.47  0.51  0.50  0.16  0.19  0.03  0.00  0.00  0.00  0.00
 1982 105   191   181  24.2 25.58  1.91 1.141  0.22 0.924 21.61   9.2 77.00 2.811     0     0  4.36  0.77 0.934  0.50  0.53  0.52  0.17  0.20  0.03  0.00  0.00  0.00  0.00
 1982 106   192   182  18.4 25.76  1.94 1.221  0.22 1.000 22.72   9.2 77.90 3.018     0     0  4.40  0.77 0.949  0.51  0.55  0.52  0.17  0.21  0.03  0.00  0.00  0.00  0.00
 1982 107   193   183  10.0 25.86  1.96 1.264  0.22 1.041 23.56   9.2 78.39 3.134     0     0  4.49  0.78 0.957  0.56  0.59  0.56  0.19  0.23  0.04  0.00  0.00  0.00  0.00
 1982 108   194   184  12.2 25.98  1.98 1.317  0.23 1.091 24.02   9.2 79.00 3.286     0     0  4.58  0.78 0.968  0.60  0.64  0.59  0.20  0.24  0.04  0.00  0.00  0.00  0.00
 1982 109   195   185  15.3 26.13  2.02 1.384  0.23 1.155 24.59   9.2 79.75 3.489     0     0  4.66  0.78 0.980  0.64  0.68  0.62  0.21  0.26  0.05  0.00  0.00  0.00  0.00
 1982 110   196   186   6.7 26.13  2.04 1.406  0.23 1.174 25.42   9.2 80.36 3.584     0     0  4.74  0.78 0.986  0.69  0.73  0.65  0.22  0.28  0.05  0.00  0.00  0.00  0.00
 1982 111   197   187   7.0 26.13  2.06 1.429  0.23 1.194 26.01   9.2 81.00 3.689     0     0  4.81  0.78 0.991  0.73  0.77  0.68  0.24  0.29  0.06  0.00  0.00  0.00  0.00
 1982 112   198   188   8.6 26.13  2.09 1.466  0.24 1.228 26.62   9.2 81.79 3.826     0     0  4.89  0.79 0.998  0.79  0.82  0.72  0.25  0.31  0.06  0.01  0.00  0.00  0.00
 1982 113   199   189  11.7 26.13  2.14 1.526  0.24 1.283 27.37   9.2 82.87 4.025     0     0  4.95  0.79 1.008  0.84  0.87  0.75  0.26  0.32  0.07  0.01  0.00  0.00  0.00
 1982 114   200   190  16.4 26.13  2.19 1.609  0.25 1.359 28.40   9.2 84.38 4.318     0     0  5.01  0.79 1.021  0.88  0.91  0.78  0.27  0.33  0.07  0.01  0.00  0.00  0.00
 1982 115   201   191  13.1 26.13  2.24 1.674  0.26 1.419 29.84   9.2 85.59 4.562     0     0  5.04  0.79 1.032  0.90  0.94  0.80  0.28  0.34  0.07  0.01  0.00  0.00  0.00
 1982 116   202   192  14.1 30.52  2.29 1.744  0.26 1.481 30.98   9.2 86.90 4.833     0     0  5.12  0.79 1.044  0.96  1.00  0.84  0.29  0.36  0.08  0.01  0.00  0.00  0.00
 1982 117   203   193  10.6 31.01  2.33 1.795  0.27 1.527 32.22   9.2 87.89 5.047     0     0  5.14  0.79 1.052  0.98  1.01  0.85  0.29  0.36  0.08  0.01  0.00  0.00  0.00
 1982 118   204   194   8.4 31.41  2.36 1.830  0.27 1.557 33.15   9.2 88.67 5.218     0     0  5.14  0.80 1.059  0.98  1.02  0.85  0.29  0.36  0.08  0.01  0.00  0.00  0.00
 1982 119   205   195  10.0 31.87  2.39 1.880  0.28 1.602 33.88   9.2 89.61 5.424     0     0  5.16  0.80 1.068  0.99  1.03  0.86  0.30  0.36  0.08  0.01  0.00  0.00  0.00
 1982 120   206   196  13.9 32.52  2.44 1.950  0.29 1.665 34.76   9.2 90.91 5.714     0     0  5.20  0.80 1.079  1.02  1.06  0.88  0.30  0.37  0.08  0.01  0.00  0.00  0.00
 1982 121   207   197  16.1 33.28  2.50 2.027  0.29 1.732 35.98   9.2 92.43 6.057     0     0  5.24  0.81 1.092  1.05  1.09  0.90  0.31  0.38  0.08  0.01  0.00  0.00  0.00
 1982 122   208   198  18.0 34.12  2.56 2.114  0.30 1.809 37.40   9.2 94.13 6.451     0     0  5.31  0.81 1.107  1.09  1.13  0.93  0.32  0.38  0.09  0.02  0.00  0.00  0.00
 1982 123   209   199  22.0 35.15  2.64 2.205  0.32 1.889 38.98   9.2 96.22 6.947     0     0  5.38  0.81 1.125  1.14  1.18  0.96  0.33  0.39  0.09  0.02  0.00  0.00  0.00
 1982 124   210   200  24.5 36.29  2.72 2.288  0.33 1.959 40.91   9.2 98.54 7.519     0     0  5.47  0.82 1.145  1.19  1.23  1.00  0.34  0.40  0.09  0.02  0.00  0.00  0.00
 1982 125   211   201  18.0 37.14  2.79 2.375  0.34 2.036 43.05   9.2 100.3 7.959     0     0  5.49  0.82 1.160  1.20  1.24  1.01  0.34  0.41  0.10  0.02  0.00  0.00  0.00
 1982 126   212   202  10.9 37.65  2.82 2.428  0.34 2.083 44.63   9.2 101.3 8.226     0     0  5.55  0.82 1.169  1.23  1.27  1.03  0.35  0.41  0.10  0.02  0.00  0.00  0.00
 1982 127   213   203  14.4 38.32  2.87 2.497  0.35 2.145 45.59   9.2 102.7 8.589     0     0  5.65  0.83 1.181  1.30  1.34  1.07  0.36  0.42  0.10  0.03  0.00  0.00  0.00
 1982 128   214   204  20.5 39.28  2.95 2.596  0.36 2.234 46.85   9.2 104.7 9.130     0     0  5.76  0.83 1.198  1.36  1.40  1.12  0.37  0.44  0.11  0.03  0.00  0.00  0.00
 1982 129   215   205  22.5 40.38  3.04 2.691  0.37 2.317 48.66   9.2 106.9 9.747     0     0  5.87  0.84 1.216  1.42  1.46  1.16  0.38  0.45  0.11  0.03  0.00  0.00  0.00
 1982 130   216   206  22.5 41.56  3.16 2.691  0.40 2.288 50.95   9.2 106.9 10.39     0     0  5.95  0.84 1.235  1.46  1.50  1.18  0.39  0.46  0.11  0.04  0.00  0.00  0.00
 1982 131   217   207  22.0 42.72  3.27 2.691  0.43 2.260 53.91   9.2 106.9 11.03     0     0  6.07  0.85 1.253  1.50  1.55  1.22  0.40  0.47  0.12  0.04  0.00  0.00  0.00
[...]
 1982  59   145   135   4.7 21.48  1.28 0.219  0.21 .0087 6.901   9.2 75.66 0.794     0     0  0.08  0.76 0.621  0.12  0.17  0.19  0.03  0.01  0.00  0.00  0.00  0.00  0.00
 1982  60   146   136   8.4 21.55  1.29 0.221  0.21 .0111 7.060   9.2 75.66 0.818     0     0  0.10  0.76 0.628  0.12  0.17  0.19  0.03  0.01  0.00  0.00  0.00  0.00  0.00
 1982  61   147   137   8.7 21.62  1.31 0.222  0.21 .0120 7.344   9.2 75.66 0.843     0     0  0.11  0.76 0.635  0.12  0.17  0.19  0.03  0.01  0.00  0.00  0.00  0.00  0.00
 1982  62   148   138  -0.2 21.62  1.31 0.222  0.21 .0120 7.640   9.2 75.66 0.843     0     0  0.11  0.77 0.635  0.12  0.17  0.19  0.03  0.01  0.00  0.00  0.00  0.00  0.00
 1982  63   149   139  -3.7 21.62  1.31 0.222  0.21 .0120 7.640   9.2 75.66 0.843     0     0  0.11  0.77 0.635  0.12  0.17  0.19  0.03  0.01  0.00  0.00  0.00  0.00  0.00
 1982  64   150   140  -4.2 21.62  1.31 0.222  0.21 .0120 7.640   9.2 75.66 0.843     0     0  0.11  0.77 0.635  0.12  0.17  0.19  0.03  0.01  0.00  0.00  0.00  0.00  0.00
 1982  65   151   141  -3.0 21.62  1.31 0.222  0.21 .0120 7.640   9.2 75.66 0.843     0     0  0.11  0.77 0.635  0.12  0.17  0.19  0.03  0.01  0.00  0.00  0.00  0.00  0.00
 1982  66   152   142  -3.0 21.62  1.31 0.222  0.21 .0120 7.640   9.2 75.66 0.843     0     0  0.11  0.77 0.635  0.12  0.17  0.19  0.03  0.01  0.00  0.00  0.00  0.00  0.00
 1982  67   153   143   2.5 21.64  1.31 0.223  0.21 .0133 7.640   9.2 75.66 0.850     0     0  0.12  0.77 0.637  0.12  0.17  0.19  0.03  0.01  0.00  0.00  0.00  0.00  0.00
 1982  68   154   144   1.4 21.66  1.31 0.224  0.21 .0137 7.730   9.2 75.66 0.855     0     0  0.13  0.77 0.638  0.12  0.17  0.19  0.03  0.01  0.00  0.00  0.00  0.00  0.00
 1982  69   155   145  11.1 21.75  1.33 0.228  0.21 .0176 7.781   9.2 75.66 0.887     0     0  0.16  0.77 0.648  0.13  0.17  0.19  0.03  0.01  0.00  0.00  0.00  0.00  0.00
 1982  70   156   146  10.0 21.83  1.34 0.232  0.21 .0217 8.185   9.2 75.66 0.916     0     0  0.19  0.77 0.656  0.13  0.17  0.19  0.03  0.01  0.00  0.00  0.00  0.00  0.00
 1982  71   157   147  12.8 21.94  1.36 0.235  0.21 .0246 8.553   9.2 75.66 0.953     0     0  0.21  0.77 0.666  0.13  0.17  0.19  0.03  0.01  0.00  0.00  0.00  0.00  0.00
 1982  72   158   148   8.0 22.01  1.37 0.242  0.21 .0315 9.027   9.2 75.66 0.977     0     0  0.26  0.77 0.673  0.13  0.17  0.19  0.03  0.01  0.00  0.00  0.00  0.00  0.00
 1982  73   159   149   7.8 22.07  1.38 0.242  0.21 .0324 9.327   9.2 75.66 1.000     0     0  0.26  0.77 0.679  0.13  0.17  0.19  0.03  0.01  0.00  0.00  0.00  0.00  0.00
 1982  74   160   150  10.0 22.16  1.40 0.245  0.21 .0354 9.620   9.2 75.66 1.030     0     0  0.28  0.77 0.688  0.13  0.18  0.19  0.03  0.01  0.00  0.00  0.00  0.00  0.00
 1982  75   161   151  13.0 22.27  1.42 0.257  0.21 .0466 9.998   9.2 75.66 1.068     0     0  0.36  0.77 0.698  0.13  0.18  0.19  0.03  0.01  0.00  0.00  0.00  0.00  0.00
 1982  76   162   152  13.9 22.39  1.44 0.270  0.21 .0600 10.50   9.2 75.66 1.110     0     0  0.46  0.77 0.710  0.14  0.18  0.20  0.03  0.01  0.00  0.00  0.00  0.00  0.00
 1982  77   163   153   9.8 22.51  1.46 0.272  0.21 .0621 11.03   9.2 75.66 1.140     0     0  0.47  0.77 0.718  0.14  0.18  0.20  0.03  0.01  0.00  0.00  0.00  0.00  0.00
 1982  78   164   154  16.1 22.71  1.48 0.289  0.21 .0787 11.41   9.2 75.66 1.190     0     0  0.58  0.77 0.731  0.14  0.19  0.20  0.03  0.01  0.00  0.00  0.00  0.00  0.00
 1982  79   165   155   8.3 22.82  1.49 0.310  0.21 0.100 12.03   9.2 75.66 1.216     0     0  0.76  0.77 0.738  0.14  0.20  0.20  0.03  0.01  0.00  0.00  0.00  0.00  0.00
 1982  80   166   156   2.5 22.85  1.50 0.312  0.21 0.102 12.36   9.2 75.66 1.224     0     0  0.85  0.77 0.740  0.14  0.20  0.21  0.03  0.01  0.00  0.00  0.00  0.00  0.00
 1982  81   167   157   3.9 22.90  1.50 0.317  0.21 0.107 12.46   9.2 75.66 1.237     0     0  1.01  0.77 0.743  0.15  0.21  0.21  0.03  0.01  0.00  0.00  0.00  0.00  0.00
 1982  82   168   158   7.8 23.00  1.52 0.338  0.21 0.128 12.61   9.2 75.66 1.264     0     0  1.11  0.78 0.749  0.15  0.22  0.22  0.03  0.01  0.00  0.00  0.00  0.00  0.00
 1982  83   169   159   6.6 23.08  1.53 0.354  0.21 0.144 12.92   9.2 75.66 1.287     0     0  1.29  0.78 0.755  0.15  0.23  0.22  0.04  0.01  0.00  0.00  0.00  0.00  0.00
 1982  84   170   160   3.9 23.13  1.53 0.360  0.21 0.150 13.19   9.2 75.66 1.301     0     0  1.47  0.78 0.758  0.16  0.24  0.23  0.04  0.01  0.00  0.00  0.00  0.00  0.00
 1982  85   171   161   3.0 23.17  1.54 0.364  0.21 0.154 13.35   9.2 75.66 1.312     0     0  1.60  0.78 0.761  0.16  0.25  0.24  0.04  0.01  0.00  0.00  0.00  0.00  0.00
 1982  86   172   162   5.6 23.24  1.55 0.377  0.21 0.167 13.47   9.2 75.66 1.334     0     0  1.78  0.78 0.765  0.17  0.26  0.25  0.04  0.02  0.00  0.00  0.00  0.00  0.00
 1982  87   173   163   6.9 23.33  1.56 0.397  0.21 0.187 13.70   9.2 75.66 1.362     0     0  1.90  0.78 0.771  0.17  0.27  0.25  0.04  0.02  0.00  0.00  0.00  0.00  0.00
 1982  88   174   164  10.3 23.46  1.58 0.436  0.21 0.226 13.98   9.2 75.66 1.406     0     0  1.99  0.78 0.779  0.18  0.28  0.26  0.04  0.02  0.00  0.00  0.00  0.00  0.00
 1982  89   175   165  15.0 23.65  1.60 0.499  0.21 0.289 14.41   9.2 75.66 1.470     0     0  2.21  0.78 0.792  0.19  0.30  0.27  0.04  0.02  0.00  0.00  0.00  0.00  0.00
 1982  90   176   166  10.9 23.78  1.62 0.545  0.21 0.335 15.04   9.2 75.66 1.519     0     0  2.50  0.78 0.800  0.21  0.33  0.29  0.05  0.02  0.00  0.00  0.00  0.00  0.00
 1982  91   177   167  13.9 23.96  1.64 0.604  0.21 0.394 15.50   9.2 75.66 1.588     0     0  2.77  0.78 0.812  0.23  0.36  0.31  0.05  0.02  0.00  0.00  0.00  0.00  0.00
 1982  92   178   168  17.0 24.17  1.67 0.675  0.21 0.465 16.08   9.2 75.66 1.678     0     0  2.98  0.78 0.826  0.24  0.39  0.32  0.05  0.03  0.00  0.00  0.00  0.00  0.00
 1982  93   179   169   7.5 24.27  1.69 0.703  0.21 0.491 16.81   9.2 76.08 1.721     0     0  3.26  0.78 0.832  0.27  0.43  0.35  0.06  0.03  0.00  0.00  0.00  0.00  0.00
 1982  94   180   170   5.2 24.33  1.69 0.717  0.21 0.503 17.13   9.2 76.37 1.754     0     0  3.44  0.78 0.836  0.30  0.46  0.37  0.06  0.04  0.00  0.00  0.00  0.00  0.00
 1982  95   181   171   3.6 24.38  1.70 0.723  0.21 0.510 17.35   9.2 76.38 1.778     0     0  3.51  0.78 0.839  0.31  0.47  0.38  0.06  0.04  0.00  0.00  0.00  0.00  0.00
 1982  96   182   172  -0.8 24.38  1.70 0.723  0.21 0.510 17.51   9.2 76.38 1.778     0     0  3.51  0.79 0.839  0.31  0.47  0.38  0.06  0.04  0.00  0.00  0.00  0.00  0.00
 1982  97   183   173   3.0 24.42  1.71 0.728  0.21 0.514 17.51   9.2 76.38 1.799     0     0  3.54  0.79 0.842  0.31  0.48  0.38  0.06  0.04  0.00  0.00  0.00  0.00  0.00
 1982  98   184   174   4.4 24.47  1.71 0.737  0.21 0.524 17.64   9.2 76.38 1.830     0     0  3.63  0.79 0.845  0.32  0.49  0.40  0.07  0.04  0.00  0.00  0.00  0.00  0.00
 1982  99   185   175   4.1 24.53  1.72 0.746  0.21 0.532 17.84   9.2 76.38 1.860     0     0  3.80  0.79 0.849  0.33  0.52  0.43  0.07  0.05  0.00  0.00  0.00  0.00  0.00
 1982 100   186   176   8.7 24.63  1.74 0.783  0.21 0.569 18.02   9.2 76.38 1.927     0     0  3.98  0.79 0.856  0.34  0.55  0.47  0.08  0.06  0.01  0.00  0.00  0.00  0.00
 1982 101   187   177  13.6 24.81  1.76 0.850  0.21 0.636 18.40   9.2 76.38 2.041     0     0  4.14  0.79 0.867  0.35  0.58  0.51  0.09  0.06  0.01  0.00  0.00  0.00  0.00
 1982 102   188   178  20.2 25.06  1.80 0.948  0.21 0.735 19.01   9.2 76.38 2.224     0     0  4.30  0.79 0.884  0.37  0.61  0.55  0.10  0.07  0.01  0.00  0.00  0.00  0.00
 1982 103   189   179  16.1 25.27  1.83 1.035  0.21 0.822 19.92   9.2 76.38 2.382     0     0  4.45  0.79 0.897  0.39  0.65  0.60  0.11  0.09  0.01  0.00  0.00  0.00  0.00
 1982 104   190   180  21.1 25.53  1.86 1.143  0.21 0.929 20.65   9.2 76.38 2.605     0     0  4.60  0.79 0.914  0.42  0.69  0.65  0.13  0.10  0.01  0.00  0.00  0.00  0.00
 1982 105   191   181  24.2 25.84  1.91 1.238  0.22 1.020 21.61   9.2 77.57 2.882     0     0  4.70  0.79 0.934  0.44  0.72  0.69  0.14  0.11  0.01  0.00  0.00  0.00  0.00
 1982 106   192   182  18.4 26.07  1.94 1.339  0.22 1.116 22.72   9.2 78.47 3.104     0     0  4.75  0.80 0.949  0.45  0.73  0.70  0.14  0.11  0.01  0.00  0.00  0.00  0.00
 1982 107   193   183  10.0 26.20  1.96 1.399  0.22 1.174 23.56   9.2 78.96 3.228     0     0  4.90  0.80 0.957  0.48  0.78  0.76  0.16  0.13  0.02  0.00  0.00  0.00  0.00
 1982 108   194   184  12.2 26.35  1.98 1.472  0.23 1.245 24.02   9.2 79.57 3.393     0     0  5.02  0.80 0.968  0.52  0.83  0.82  0.18  0.14  0.02  0.00  0.00  0.00  0.00
 1982 109   195   185  15.3 26.54  2.02 1.564  0.23 1.334 24.59   9.2 80.32 3.616     0     0  5.13  0.80 0.980  0.56  0.88  0.87  0.19  0.16  0.02  0.00  0.00  0.00  0.00
 1982 110   196   186   6.7 26.54  2.04 1.591  0.23 1.357 25.42   9.2 81.03 3.720     0     0  5.24  0.80 0.986  0.59  0.92  0.93  0.21  0.19  0.03  0.00  0.00  0.00  0.00
 1982 111   197   187   7.0 26.54  2.06 1.620  0.24 1.383 26.01   9.2 81.77 3.837     0     0  5.33  0.80 0.991  0.62  0.95  0.99  0.23  0.21  0.03  0.00  0.00  0.00  0.00
 1982 112   198   188   8.6 26.54  2.09 1.665  0.24 1.424 26.62   9.2 82.68 3.991     0     0  5.43  0.80 0.998  0.65  0.99  1.05  0.26  0.24  0.04  0.00  0.00  0.00  0.00
 1982 113   199   189  11.7 26.54  2.14 1.736  0.25 1.490 27.37   9.2 83.93 4.214     0     0  5.50  0.80 1.008  0.68  1.02  1.10  0.28  0.26  0.04  0.00  0.00  0.00  0.00
 1982 114   200   190  16.4 26.54  2.19 1.836  0.25 1.581 28.40   9.2 85.68 4.545     0     0  5.57  0.81 1.021  0.71  1.05  1.15  0.29  0.28  0.04  0.01  0.00  0.00  0.00
 1982 115   201   191  13.1 26.54  2.24 1.915  0.26 1.654 29.84   9.2 87.08 4.820     0     0  5.61  0.81 1.032  0.73  1.07  1.17  0.31  0.30  0.05  0.01  0.00  0.00  0.00
 1982 116   202   192  14.1 30.52  2.29 2.001  0.27 1.732 30.98   9.2 88.60 5.127     0     0  5.70  0.81 1.044  0.77  1.11  1.23  0.33  0.33  0.05  0.01  0.00  0.00  0.00
 1982 117   203   193  10.6 31.01  2.33 2.065  0.27 1.791 32.22   9.2 89.74 5.370     0     0  5.73  0.81 1.052  0.78  1.12  1.24  0.34  0.34  0.05  0.01  0.00  0.00  0.00
 1982 118   204   194   8.4 31.41  2.36 2.107  0.28 1.829 33.15   9.2 90.64 5.565     0     0  5.73  0.82 1.059  0.78  1.12  1.24  0.34  0.34  0.05  0.01  0.00  0.00  0.00
 1982 119   205   195  10.0 31.87  2.39 2.169  0.28 1.885 33.88   9.2 91.72 5.799     0     0  5.76  0.82 1.068  0.80  1.14  1.25  0.34  0.35  0.06  0.01  0.00  0.00  0.00
 1982 120   206   196  13.9 32.52  2.44 2.254  0.29 1.963 34.76   9.2 93.23 6.128     0     0  5.80  0.82 1.079  0.82  1.16  1.27  0.35  0.36  0.06  0.01  0.00  0.00  0.00
 1982 121   207   197  16.1 33.28  2.50 2.353  0.30 2.053 35.98   9.2 94.98 6.519     0     0  5.85  0.82 1.092  0.86  1.20  1.29  0.36  0.37  0.06  0.01  0.00  0.00  0.00
 1982 122   208   198  18.0 34.12  2.56 2.463  0.31 2.154 37.40   9.2 96.95 6.968     0     0  5.92  0.82 1.107  0.90  1.24  1.32  0.37  0.39  0.07  0.01  0.00  0.00  0.00
 1982 123   209   199  22.0 35.15  2.64 2.580  0.32 2.259 38.98   9.2 99.35 7.533     0     0  6.00  0.83 1.125  0.95  1.29  1.36  0.38  0.40  0.07  0.02  0.00  0.00  0.00
 1982 124   210   200  24.5 36.29  2.72 2.686  0.33 2.352 40.91   9.2 102.0 8.186     0     0  6.09  0.83 1.145  1.01  1.35  1.40  0.39  0.42  0.07  0.02  0.00  0.00  0.00
 1982 125   211   201  18.0 37.14  2.79 2.798  0.34 2.455 43.05   9.2 104.0 8.688     0     0  6.12  0.84 1.160  1.03  1.36  1.41  0.39  0.43  0.08  0.02  0.00  0.00  0.00
 1982 126   212   202  10.9 37.65  2.82 2.865  0.35 2.516 44.63   9.2 105.2 8.992     0     0  6.18  0.84 1.169  1.06  1.40  1.43  0.40  0.44  0.08  0.02  0.00  0.00  0.00
 1982 127   213   203  14.4 38.32  2.87 2.954  0.36 2.598 45.59   9.2 106.8 9.407     0     0  6.30  0.84 1.181  1.13  1.47  1.48  0.41  0.45  0.08  0.03  0.00  0.00  0.00
 1982 128   214   204  20.5 39.28  2.95 3.077  0.37 2.711 46.85   9.2 109.1 10.02     0     0  6.41  0.84 1.198  1.20  1.54  1.53  0.42  0.47  0.09  0.03  0.00  0.00  0.00
 1982 129   215   205  22.5 40.38  3.04 3.193  0.38 2.817 48.66   9.2 111.6 10.73     0     0  6.52  0.85 1.216  1.27  1.60  1.57  0.44  0.48  0.09  0.03  0.00  0.00  0.00
 1982 130   216   206  22.5 41.56  3.16 3.193  0.41 2.783 50.95   9.2 111.6 11.46     0     0  6.60  0.85 1.235  1.31  1.65  1.61  0.45  0.49  0.10  0.04  0.00  0.00  0.00
 1982 131   217   207  22.0 42.72  3.27 3.193  0.44 2.751 53.91   9.2 111.6 12.18     0     0  6.71  0.86 1.253  1.36  1.70  1.64  0.46  0.50  0.10  0.04  0.00  0.00  0.00
 1982 132   218   208  18.9 43.71  3.37 3.193  0.47 2.723 56.79   9.2 111.6 12.83     0     0  6.77  0.86 1.268  1.39  1.72  1.66  0.46  0.50  0.10  0.04  0.00  0.00  0.00
 1982 133   219   209  20.0 44.77  3.48 3.193  0.50 2.693 59.28   9.2 111.6 13.52     0     0  6.83  0.87 1.285  1.41  1.75  1.67  0.47  0.51  0.10  0.04  0.00  0.00  0.00
 1982 134   220   210  17.8 45.70  3.57 3.193  0.53 2.667 61.91   9.2 111.6 14.14     0     0  6.89  0.87 1.299  1.44  1.77  1.69  0.47  0.51  0.10  0.04  0.00  0.00  0.00
 1982 135   221   211  17.8 46.63  3.66 3.193  0.55 2.640 64.25   9.2 111.6 14.77     0     0  7.04  0.88 1.314  1.49  1.82  1.73  0.48  0.52  0.11  0.05  0.00  0.00  0.00
 1982 136   222   212  19.5 47.66  3.77 3.193  0.58 2.612 66.58   9.2 111.6 15.48     0     0  7.11  0.88 1.330  1.51  1.85  1.74  0.48  0.53  0.11  0.05  0.00  0.00  0.00
 1982 137   223   213  19.5 48.68  3.87 3.193  0.61 2.583 69.14   9.2 111.6 16.19     0     0  7.21  0.89 1.346  1.54  1.88  1.76  0.49  0.53  0.11  0.05  0.00  0.00  0.00
 1982 138   224   214  20.3 49.75  3.97 3.193  0.64 2.553 71.70   9.2 111.6 16.95     0     0  7.37  0.89 1.362  1.59  1.92  1.79  0.50  0.54  0.11  0.05  0.00  0.00  0.00
 1982 139   225   215  23.6 53.77  4.09 3.193  0.68 2.518 74.37   9.2 111.6 17.85     0     0  7.52  0.90 1.382  1.63  1.96  1.82  0.51  0.55  0.12  0.05  0.00  0.00  0.00
 1982 140   226   216  21.1 57.99  4.20 3.193  0.70 2.491 77.35   9.2 111.6 18.67     0     0  7.62  0.92 1.399  1.64  1.98  1.83  0.51  0.55  0.12  0.05  0.00  0.00  0.00
 1982 141   227   217  18.0 63.99  4.29 3.193  0.72 2.468 79.99   9.2 111.6 19.37     0     0  7.80  0.94 1.414  1.67  2.00  1.85  0.51  0.56  0.12  0.05  0.00  0.00  0.00
 1982 142   228   218  16.1 70.32  4.37 3.193  0.74 2.448 82.25   9.2 111.6 20.01     0     0  7.97  0.95 1.427  1.68  2.01  1.85  0.52  0.56  0.12  0.05  0.00  0.00  0.00
 1982 143   229   219  18.0 71.71  4.46 3.193  0.77 2.425 84.27   9.2 111.6 20.73 22072 .0000  8.21  0.97 1.442  1.69  2.03  1.86  0.52  0.56  0.12  0.05  0.00  0.00  0.00
 1982 144   230   220  18.7 73.14  4.55 3.193  0.79 2.402 86.52   9.2 111.6 21.47 22072 .0001  8.32  0.98 1.457  1.69  2.03  1.86  0.52  0.56  0.12  0.06  0.00  0.00  0.00
 1982 145   231   221  20.0 74.68  4.65 3.193  0.82 2.377 88.85   9.2 111.6 22.27 22072 .0004  8.48  0.98 1.474  1.69  2.03  1.86  0.52  0.56  0.12  0.06  0.00  0.00  0.00
 1982 146   232   222  16.4 75.94  4.74 3.193  0.84 2.356 91.35   9.2 111.6 22.92 22072 .0007  8.77  0.98 1.487  1.70  2.04  1.87  0.52  0.56  0.12  0.06  0.00  0.00  0.00
 1982 147   233   223  18.4 77.35  4.83 3.193  0.86 2.333 93.40   9.2 111.6 23.66 22072 .0011  9.08  0.98 1.502  1.71  2.05  1.87  0.52  0.56  0.12  0.06  0.00  0.00  0.00
 1982 148   234   224  23.3 79.15  4.94 3.193  0.89 2.303 95.70   9.2 111.6 24.60 22072 .0018  9.26  0.98 1.522  1.71  2.05  1.87  0.52  0.57  0.12  0.06  0.00  0.00  0.00
 1982 149   235   225  21.4 80.20  5.02 3.193  0.92 2.277 98.62   9.2 111.6 25.46 22072 .0026  9.52  0.98 1.539  1.72  2.06  1.88  0.52  0.57  0.12  0.06  0.00  0.00  0.00
 1982 150   236   226  20.5 80.61  5.06 3.193  0.93 2.267 100.0   9.2 111.6 26.29 22072 .0034  9.71  0.98 1.556  1.72  2.06  1.88  0.52  0.57  0.12  0.06  0.00  0.00  0.00
 1982 151   237   227  17.8 80.96  5.10 3.193  0.93 2.259 100.0   9.2 111.6 27.00 22072 .0041  9.87  0.98 1.571  1.72  2.06  1.88  0.52  0.57  0.12  0.06  0.00  0.00  0.00
 1982 152   238   228  12.8 81.22  5.12 3.193  0.94 2.254 100.0   9.2 111.6 27.52 22072 .0046 10.18  0.98 1.581  1.73  2.07  1.89  0.53  0.57  0.12  0.06  0.00  0.00  0.00
 1982 153   239   229  15.2 81.52  5.15 3.193  0.98 2.213 100.0   9.2 111.6 28.14 22072 .0051 10.30  0.98 1.594  1.74  2.07  1.89  0.53  0.57  0.12  0.06  0.00  0.00  0.00
 1982 154   240   230  15.0 81.82  5.18 3.193  1.03 2.164 100.0   9.2 111.6 28.75 22072 .0057 10.38  0.98 1.606  1.74  2.07  1.89  0.53  0.57  0.12  0.06  0.00  0.00  0.00
 1982 155   241   231  17.0 82.15  5.22 3.193  1.08 2.116 100.0   9.2 111.6 29.44 22072 .0064 10.54  0.98 1.620  1.74  2.08  1.89  0.53  0.57  0.12  0.06  0.00  0.00  0.00
 1982 156   242   232  17.8 82.50  5.25 3.193  1.13 2.062 100.0   9.2 111.6 30.16 22072 .0071 10.76  0.98 1.635  1.75  2.08  1.89  0.53  0.57  0.12  0.06  0.00  0.00  0.00
 1982 157   243   233  25.5 83.01  5.30 3.193  1.19 2.006 100.0   9.2 111.6 31.20 22072 .0081 10.95  0.98 1.656  1.75  2.08  1.89  0.53  0.57  0.12  0.06  0.01  0.00  0.00
 1982 158   244   234  20.2 83.41  5.34 3.193  1.27 1.924 100.0   9.2 111.6 32.03 22072 .0090 11.17  0.98 1.672  1.75  2.09  1.90  0.53  0.57  0.12  0.06  0.01  0.00  0.00
 1982 159   245   235  25.8 83.92  5.39 3.193  1.33 1.860 100.0   9.2 111.6 33.08 22072 .0100 11.32  0.98 1.693  1.76  2.09  1.90  0.53  0.57  0.12  0.06  0.01  0.00  0.00
 1982 160   246   236  22.8 84.37  5.44 3.193  1.42 1.777 100.0   9.2 111.6 34.01 22072 .0109 11.47  0.98 1.712  1.76  2.09  1.90  0.53  0.57  0.12  0.06  0.01  0.00  0.00
 1982 161   247   237  16.4 84.69  5.47 3.193  1.49 1.705 100.0   9.2 111.6 34.68 22072 .0116 11.61  0.98 1.725  1.76  2.10  1.90  0.53  0.57  0.12  0.06  0.01  0.00  0.00
 1982 162   248   238  18.0 85.05  5.51 3.193  1.57 1.619 100.0   9.2 111.6 35.42 22072 .0123 11.66  0.98 1.740  1.76  2.10  1.90  0.53  0.57  0.12  0.06  0.01  0.00  0.00
 1982 163   249   239  19.8 85.44  5.54 3.193  1.66 1.529 100.0   9.2 111.6 36.23 22072 .0131 11.74  0.98 1.757  1.76  2.10  1.90  0.53  0.57  0.12  0.06  0.01  0.00  0.00
 1982 164   250   240  20.9 85.86  5.59 3.193  1.76 1.435 100.0   9.2 111.6 37.09 22072 .0140 11.79  0.98 1.774  1.76  2.09  1.90  0.53  0.57  0.12  0.06  0.01  0.00  0.00
 1982 165   251   241  23.9 86.33  5.63 3.193  1.85 1.340 100.0   9.2 111.6 38.07 22072 .0145 11.83  0.98 1.793  1.76  2.09  1.90  0.53  0.57  0.12  0.06  0.01  0.00  0.00
 1982 166   252   242  22.5 86.77  5.68 3.193  1.96 1.237 100.0   9.2 111.6 38.99 22072 .0147 11.88  0.98 1.800  1.76  2.09  1.89  0.53  0.57  0.12  0.06  0.01  0.00  0.00
 1982 167   253   243  18.6 87.14  5.71 3.193  2.05 1.141 100.0   9.2 111.6 39.75 22072 .0151 11.92  0.98 1.800  1.76  2.09  1.89  0.53  0.57  0.12  0.06  0.01  0.00  0.00
 1982 168   254   244  21.1 87.56  5.76 3.193  2.13 1.059 100.0   9.2 111.6 40.61 22072 .0154 11.96  0.98 1.800  1.76  2.09  1.89  0.53  0.57  0.12  0.06  0.01  0.00  0.00
 1982 169   255   245  21.1 87.98  5.80 3.193  2.22 0.970 100.0   9.2 111.6 41.47 22072 .0155 11.98  0.98 1.800  1.76  2.09  1.89  0.53  0.57  0.12  0.06  0.01  0.00  0.00
 1982 170   256   246  19.2 88.36  5.84 3.193  2.31 0.884 100.0   9.2 111.6 42.26 22072 .0156 12.01  0.98 1.800  1.76  2.09  1.89  0.53  0.57  0.12  0.06  0.01  0.00  0.00
 1982 171   257   247  22.8 88.81  5.88 3.193  2.39 0.805 100.0   9.2 111.6 43.18 22072 .0159 12.04  0.98 1.800  1.75  2.08  1.89  0.53  0.57  0.12  0.06  0.01  0.00  0.00
 1982 172   258   248  22.2 89.25  5.92 3.193  2.48 0.716 100.0   9.2 111.6 44.09 22072 .0161 12.06  0.98 1.800  1.75  2.08  1.89  0.53  0.57  0.12  0.06  0.01  0.00  0.00
 1982 173   259   249  20.8 89.66  5.97 3.193  2.56 0.631 100.0   9.2 111.6 44.94 22072 .0162 12.08  0.98 1.800  1.75  2.08  1.88  0.53  0.57  0.12  0.06  0.01  0.00  0.00
 1982 174   260   250  21.7 90.23  6.02 3.193  2.64 0.552 100.0   9.2 111.6 45.82 22072 .0164 12.09  0.98 1.800  1.75  2.08  1.88  0.53  0.57  0.12  0.06  0.01  0.00  0.00
