
*SOIL N BALANCE - CENTURY ROUTINES

*DSSAT Cropping System Model Ver. 4.8.5.000 -release  SEP 11, 2025 22:39:39

!                              |--------------- Initial N State Variables ----------------|----------------- Final N State Variables -----------------|------------- N Additions -------------|---------------- N Subtractions -----------------|--Mineralization---|----- Seasonal Balance -----|
!                              |----------------- Organic ----------------------|         |------------------ Organic ----------------------|         |  Harvest   Applied                    |              Tile-     Plant     N gas     Flood|   Miner-    Immob-|                            |
!                              | Surface      SOM1      SOM2      SOM3    Litter     Inorg|  Surface      SOM1      SOM2      SOM3    Litter     Inorg|  Residue   Residue  Fertiliz   Senesed|  Leached   drained    Uptake    Losses    Losses|   alized    ilized|Inorganic   Organic   Overall
@Run FILEX               TN CR     SN0Di    S1NTDi    S2NTDi    S3NTDi     LNTDi     NIADi      SN0D     S1NTD     S2NTD     S3NTD      LNTD      NIAD      HRNH     RESNC      NICM     SNNTC      NLCM      TDFC      NUCM     NGasC      RNRO      NMNC      NIMC    InNBal   OrgNBal     SNBAL
   1 KSAS8101.WHX         1 WH      0.00      0.00   7840.65      0.00     80.10    176.62      0.93      0.00   7831.95      0.00     32.48     49.47      0.00      0.00      0.00      1.30    125.44      0.00     52.75      5.66      0.00     56.74      0.04      0.00      0.00      0.00
   2 KSAS8101.WHX         2 WH      0.00      0.00   7840.65      0.00     80.10    176.62      1.04      0.00   7832.55      0.00     31.49     68.83      0.00      0.00     60.00      1.57    127.84      0.00     89.18      8.00      0.00     57.29      0.04     -0.00     -0.00     -0.00
   3 KSAS8101.WHX         3 WH      0.00      0.00   7840.65      0.00     80.10    176.62      1.10      0.00   7832.52      0.00     31.96    135.18      0.00      0.00    180.00      1.68    135.36      0.00    132.70     10.24      0.00     56.90      0.04     -0.00      0.00     -0.00
   4 KSAS8101.WHX         4 WH      0.00      0.00   7840.65      0.00     80.10    176.62      0.92      0.00   7831.44      0.00     30.93     17.02      0.00      0.00      0.00      1.26    174.00      0.00     38.88      5.43      0.00     58.76      0.04     -0.00      0.00      0.00
   5 KSAS8101.WHX         5 WH      0.00      0.00   7840.65      0.00     80.10    176.62      1.03      0.00   7831.66      0.00     29.99     20.55      0.00      0.00     60.00      1.52    209.23      0.00     58.61      7.82      0.00     59.64      0.04     -0.00      0.00      0.00
   6 KSAS8101.WHX         6 WH      0.00      0.00   7840.65      0.00     80.10    176.62      1.10      0.00   7831.84      0.00     29.19     44.14      0.00      0.00    180.00      1.69    266.39      0.00     95.65     10.74      0.00     60.35      0.04     -0.00     -0.00     -0.00
