*Soil Inorganic Nitrogen daily output file

*DSSAT Cropping System Model Ver. 4.8.5.000 -release  SEP 11, 2025 22:39:39

*RUN   1        : DRYLAND  - 0 KG N/HA      CSCER048 KSAS8101    1
 MODEL          : CSCER048 - Wheat
 EXPERIMENT     : KSAS8101 WH N RESPONSE,KANSAS STATE  3FE(N)*2IR  (DSSAT3)
 DATA PATH      :
 TREATMENT  1   : DRYLAND  - 0 KG N/HA      CSCER048
  
!                                                                                                                                      NO3 (ppm) at soil dep. (cm):                                            NH4 (ppm) at soil dep. (cm):                                            Total Inorganic N @dep(ppm):
!                                                                                                                                       0-5    5-15   15-30   30-45   45-60   60-90  90-120 120-150 150-180     0-5    5-15   15-30   30-45   45-60   60-90  90-120 120-150 150-180     0-5    5-15   15-30   30-45   45-60   60-90  90-120 120-150 150-180
@YEAR DOY   DAS  NAPC  NI#M    NIAD    NITD    NHTD   NURTD    NMNC    NITC    NDNC    NIMC    AMLC   NNMNC    NUCM    NLCC    TDNC    NI1D    NI2D    NI3D    NI4D    NI5D    NI6D    NI7D    NI8D    NI9D    NH1D    NH2D    NH3D    NH4D    NH5D    NH6D    NH7D    NH8D    NH9D    NT1D    NT2D    NT3D    NT4D    NT5D    NT6D    NT7D    NT8D    NT9D    
 1981 278     0     0     0   176.6   116.2    60.5     0.0    0.00    0.00    0.00    0.00    0.00    0.00    0.00    0.00    0.00    9.80     9.8     7.3    5.10    5.10    4.70    4.30    4.30    4.30    3.40    3.40    3.20    2.50    2.50    2.20    2.70    2.70    2.70   13.20   13.20   10.50    7.60    7.60    6.90    7.00    7.00    7.00
 1981 279     1     0     0   176.5   138.1    38.4     0.0    0.10   22.09    0.00    0.03    0.00    0.07    0.00    0.00    0.00   11.03    10.9     8.6    6.08    6.07    5.54    5.30    5.24    5.17    2.19    2.17    1.97    1.53    1.53    1.35    1.70    1.76    1.83   13.22   13.12   10.54    7.61    7.59    6.89    6.99    6.99    7.00
 1981 280     2     0     0   176.6   151.1    25.5     0.0    0.29   35.24    0.00    0.04    0.00    0.25    0.00    0.00    0.00   11.74    11.6     9.3    6.64    6.62    6.03    5.89    5.82    5.74    1.53    1.54    1.28    0.98    0.98    0.86    1.10    1.17    1.26   13.27   13.11   10.58    7.62    7.59    6.88    6.99    6.99    7.00
 1981 281     3     0     0   176.7   159.0    17.7     0.0    0.50   43.23    0.00    0.04    0.00    0.46    0.00    0.00    0.00   12.17    11.9     9.7    6.97    6.93    6.31    6.25    6.19    6.11    1.14    1.21    0.88    0.67    0.66    0.57    0.74    0.81    0.89   13.31   13.15   10.61    7.64    7.59    6.88    6.99    6.99    7.00
 1981 282     4     0     0   176.9   164.0    12.9     0.0    0.72   48.24    0.00    0.04    0.00    0.67    0.00    0.00    0.00   12.37    12.2    10.0    7.18    7.12    6.48    6.47    6.42    6.35    0.96    1.03    0.64    0.48    0.47    0.40    0.52    0.57    0.65   13.33   13.22   10.63    7.66    7.60    6.88    6.99    6.99    7.00
 1981 283     5     0     0   177.1   167.4     9.7     0.0    0.93   51.66    0.00    0.04    0.00    0.88    0.00    0.00    0.00   12.52    12.4    10.1    7.32    7.25    6.59    6.62    6.58    6.53    0.83    0.91    0.49    0.36    0.35    0.29    0.37    0.41    0.48   13.35   13.29   10.64    7.68    7.60    6.88    6.99    7.00    7.00
 1981 284     6     0     0   177.2   169.7     7.5     0.0    1.12   54.02    0.00    0.04    0.00    1.08    0.00    0.00    0.00   12.60    12.5    10.3    7.42    7.34    6.67    6.72    6.69    6.65    0.75    0.84    0.38    0.28    0.27    0.21    0.28    0.31    0.36   13.35   13.37   10.64    7.70    7.61    6.88    6.99    7.00    7.01
 1981 285     7     0     0   177.4   171.5     5.9     0.0    1.32   55.81    0.00    0.04    0.00    1.28    0.00    0.00    0.00   12.68    12.7    10.3    7.51    7.40    6.72    6.79    6.77    6.74    0.68    0.77    0.30    0.22    0.21    0.16    0.20    0.23    0.27   13.36   13.46   10.63    7.72    7.61    6.88    6.99    7.00    7.01
 1981 286     8     0     0   177.6   172.9     4.7     0.0    1.58   57.31    0.00    0.04    0.00    1.54    0.00    0.00    0.00   12.67    12.9    10.4    7.58    7.45    6.76    6.84    6.83    6.81    0.62    0.73    0.24    0.17    0.16    0.12    0.15    0.17    0.20   13.29   13.63   10.62    7.74    7.61    6.88    7.00    7.00    7.01
 1981 287     9     0     0   177.9   174.2     3.7     0.0    1.90   58.59    0.00    0.04    0.00    1.86    0.00    0.00    0.00   12.78    13.1    10.4    7.64    7.50    6.80    6.89    6.88    6.86    0.57    0.70    0.18    0.13    0.12    0.09    0.11    0.12    0.15   13.35   13.77   10.62    7.77    7.62    6.88    7.00    7.00    7.01
 1981 288    10     0     0   178.3   175.2     3.0     0.0    2.26   59.63    0.00    0.04    0.00    2.22    0.00    0.00    0.00   12.83    13.3    10.5    7.69    7.53    6.82    6.92    6.92    6.91    0.55    0.68    0.14    0.10    0.09    0.06    0.08    0.09    0.11   13.38   13.95   10.62    7.79    7.63    6.89    7.00    7.01    7.02
 1981 289    11     0     1   178.6   176.1     2.6     0.0    2.63   60.48    0.00    0.04    0.00    2.59    0.00    0.00    0.00   12.96    13.4    10.5    7.74    7.56    6.84    6.95    6.94    6.94    0.53    0.68    0.11    0.08    0.08    0.05    0.06    0.07    0.08   13.49   14.11   10.62    7.81    7.64    6.89    7.01    7.01    7.02
 1981 290    12     0     1   179.0   176.8     2.2     0.0    3.01   61.19    0.00    0.04    0.00    2.97    0.00    0.00    0.00    6.61    16.1    11.0    7.77    7.58    6.86    6.97    6.97    6.96    0.50    0.68    0.09    0.06    0.06    0.04    0.05    0.05    0.07    7.11   16.81   11.07    7.84    7.65    6.89    7.01    7.02    7.03
 1981 291    13     0     1   179.5   177.3     2.3     0.0    3.54   61.70    0.00    0.04    0.00    3.49    0.00    0.00    0.00    6.73    15.8    11.2    7.81    7.60    6.87    6.98    6.98    6.98    0.54    0.86    0.07    0.05    0.05    0.03    0.04    0.04    0.05    7.27   16.68   11.32    7.87    7.66    6.90    7.02    7.02    7.03
 1981 292    14     0     1   180.0   177.8     2.2     0.0    3.98   62.24    0.00    0.04    0.00    3.94    0.00    0.00    0.00    6.84    15.8    11.4    7.85    7.62    6.87    6.99    6.99    7.00    0.54    0.90    0.06    0.05    0.05    0.03    0.03    0.03    0.04    7.38   16.72   11.42    7.90    7.67    6.90    7.03    7.03    7.04
 1981 293    15     0     1   180.3   178.3     2.1     0.0    4.36   62.71    0.00    0.04    0.00    4.32    0.01    0.00    0.00    6.94    15.9    11.4    7.89    7.63    6.88    7.00    7.00    7.01    0.49    0.91    0.06    0.04    0.05    0.03    0.03    0.03    0.04    7.42   16.77   11.49    7.93    7.68    6.91    7.03    7.03    7.04
 1981 294    16     0     1   180.7   178.7     2.0     0.0    4.75   63.19    0.00    0.04    0.00    4.71    0.04    0.00    0.00    7.03    15.9    11.5    7.92    7.65    6.89    7.01    7.01    7.02    0.44    0.92    0.05    0.04    0.04    0.02    0.03    0.03    0.03    7.47   16.86   11.54    7.97    7.69    6.91    7.04    7.04    7.05
 1981 295    17     0     1   181.0   179.1     1.9     0.0    5.13   63.63    0.00    0.04    0.00    5.08    0.05    0.00    0.00    7.10    16.1    11.5    7.96    7.66    6.89    7.02    7.02    7.03    0.40    0.92    0.05    0.04    0.04    0.02    0.03    0.02    0.03    7.50   16.98   11.56    8.00    7.70    6.92    7.04    7.04    7.05
 1981 296    18     0     1   181.3   179.4     1.8     0.0    5.43   64.00    0.00    0.04    0.00    5.39    0.11    0.00    0.00    7.15    16.1    11.5    7.99    7.67    6.90    7.02    7.02    7.03    0.37    0.90    0.05    0.04    0.04    0.02    0.02    0.02    0.03    7.52   17.05   11.56    8.03    7.71    6.92    7.05    7.05    7.06
 1981 297    19     0     1   181.5   179.8     1.8     0.0    5.68   64.32    0.00    0.04    0.00    5.64    0.11    0.00    0.00    7.18    16.3    11.5    8.02    7.68    6.90    7.03    7.03    7.04    0.35    0.86    0.05    0.04    0.04    0.02    0.02    0.02    0.02    7.53   17.14   11.55    8.06    7.72    6.92    7.05    7.05    7.06
 1981 298    20     0     1   181.7   180.0     1.7     0.0    5.90   64.60    0.00    0.04    0.00    5.85    0.17    0.00    0.00    7.23    16.3    11.5    8.05    7.69    6.91    7.03    7.04    7.04    0.33    0.82    0.05    0.04    0.04    0.02    0.02    0.02    0.02    7.56   17.17   11.53    8.09    7.73    6.93    7.06    7.06    7.07
 1981 299    21     0     1   181.8   180.2     1.6     0.0    6.07   64.86    0.00    0.04    0.00    6.02    0.24    0.00    0.00    7.30    16.4    11.5    8.08    7.70    6.91    7.04    7.04    7.05    0.31    0.76    0.04    0.04    0.04    0.02    0.02    0.02    0.02    7.61   17.14   11.51    8.11    7.74    6.93    7.06    7.06    7.07
 1981 300    22     0     1   181.8   180.3     1.5     0.0    6.21   65.09    0.00    0.04    0.00    6.16    0.32    0.00    0.00    7.39    16.4    11.5    8.10    7.71    6.91    7.04    7.05    7.06    0.28    0.70    0.04    0.03    0.04    0.02    0.02    0.02    0.02    7.67   17.08   11.50    8.14    7.75    6.94    7.07    7.07    7.08
 1981 301    23     0     1   181.9   180.5     1.4     0.0    6.39   65.33    0.00    0.04    0.00    6.35    0.41    0.00    0.00    7.50    16.4    11.4    8.12    7.72    6.92    7.05    7.05    7.06    0.26    0.66    0.04    0.03    0.04    0.02    0.02    0.02    0.02    7.76   17.03   11.48    8.16    7.76    6.94    7.07    7.07    7.08
 1981 302    24     0     1   182.1   180.7     1.4     0.0    6.66   65.60    0.00    0.04    0.00    6.61    0.49    0.00    0.00    7.64    16.4    11.4    8.15    7.73    6.92    7.06    7.06    7.07    0.25    0.65    0.04    0.04    0.04    0.02    0.02    0.02    0.02    7.89   17.01   11.47    8.18    7.77    6.94    7.08    7.08    7.09
 1981 303    25     0     1   182.3   180.9     1.4     0.0    6.98   65.91    0.00    0.04    0.00    6.93    0.59    0.00    0.00    7.79    16.3    11.4    8.17    7.75    6.93    7.06    7.06    7.07    0.24    0.66    0.04    0.04    0.04    0.02    0.02    0.02    0.02    8.04   17.00   11.45    8.21    7.79    6.95    7.09    7.08    7.09
 1981 304    26     0     1   182.6   181.1     1.5     0.0    7.34   66.25    0.00    0.04    0.00    7.29    0.70    0.00    0.00    7.96    16.3    11.4    8.20    7.76    6.93    7.07    7.07    7.08    0.24    0.66    0.04    0.04    0.04    0.02    0.02    0.02    0.02    8.20   17.01   11.44    8.23    7.80    6.96    7.09    7.09    7.10
 1981 305    27     0     1   182.9   181.4     1.5     0.0    7.74   66.62    0.00    0.04    0.00    7.70    0.81    0.00    0.00    0.72     5.2     9.8   10.93    8.21    9.87    7.91    7.07    7.08    0.23    0.67    0.05    0.04    0.04    0.02    0.02    0.02    0.02    0.96    5.89    9.87   10.97    8.25    9.89    7.93    7.09    7.10
 1981 306    28     0     1   183.4   181.5     1.9     0.0    8.34   66.82    0.00    0.04    0.00    8.29    0.87    0.00    0.00    0.61     4.8     9.4   10.31    8.45    9.51    8.80    7.08    7.09    0.39    0.86    0.06    0.05    0.05    0.03    0.02    0.02    0.02    1.00    5.64    9.42   10.36    8.50    9.54    8.82    7.10    7.11
 1981 307    29     0     1   183.8   181.6     2.2     0.0    8.88   67.03    0.00    0.04    0.00    8.84    1.00    0.00    0.00    0.61     4.5     9.0    9.77    8.48    9.10    9.41    7.34    7.10    0.52    1.01    0.07    0.06    0.07    0.03    0.03    0.02    0.02    1.13    5.54    9.08    9.83    8.54    9.13    9.43    7.36    7.12
 1981 308    30     0     1   184.2   181.8     2.4     0.0    9.40   67.31    0.00    0.04    0.00    9.36    1.13    0.00    0.00    0.39     3.3     8.0    8.72    8.66    8.69    9.67    8.72    7.10    0.57    1.13    0.08    0.07    0.07    0.03    0.03    0.02    0.02    0.95    4.41    8.12    8.79    8.73    8.72    9.70    8.75    7.12
 1981 309    31     0     1   184.5   181.9     2.6     0.0    9.85   67.53    0.00    0.04    0.00    9.80    1.25    0.00    0.00    0.36     3.0     7.6    8.23    8.59    8.12    9.39    9.55    7.66    0.65    1.21    0.08    0.08    0.08    0.03    0.03    0.02    0.02    1.01    4.24    7.67    8.31    8.67    8.15    9.42    9.57    7.68
 1981 310    32     0     1   177.8   175.2     2.6     0.0   10.27   67.79    0.10    0.04    0.00   10.22    1.39    6.73    0.00    0.46     2.9     7.2    7.56    8.07    7.27    8.46    9.02    8.95    0.65    1.27    0.08    0.06    0.06    0.03    0.03    0.02    0.02    1.12    4.20    7.29    7.62    8.13    7.30    8.49    9.04    8.97
 1981 311    33     0     1   174.0   171.4     2.6     0.0   10.63   68.07    0.14    0.04    0.00   10.59    1.48   10.72    0.00    0.58     3.0     7.1    7.33    7.86    6.97    8.11    8.91    8.94    0.63    1.31    0.08    0.06    0.06    0.03    0.03    0.02    0.02    1.20    4.30    7.18    7.39    7.93    6.99    8.14    8.94    8.96
 1981 312    34     0     1   173.0   170.5     2.5     0.0   10.99   68.47    0.15    0.04    0.00   10.94    1.61   11.91    0.00    0.34     2.2     6.3    6.87    8.21    6.99    8.18    9.05    9.13    0.60    1.23    0.08    0.06    0.06    0.03    0.03    0.02    0.02    0.93    3.47    6.39    6.93    8.27    7.02    8.21    9.08    9.15
 1981 313    35     0     1   170.0   167.4     2.5     0.0   11.33   68.66    0.24    0.04    0.00   11.28    1.73   14.99    0.00    0.22     1.8     5.5    6.08    7.71    6.80    8.17    9.26    9.42    0.65    1.26    0.08    0.05    0.05    0.02    0.03    0.03    0.02    0.87    3.05    5.62    6.13    7.76    6.82    8.20    9.28    9.44
 1981 314    36     0     1   154.8   152.4     2.4     0.0   11.58   68.86    0.36    0.04    0.00   11.54    1.76   30.11    0.00    0.30     1.7     5.2    5.50    7.04    6.01    7.20    8.40    8.88    0.62    1.28    0.08    0.04    0.04    0.02    0.02    0.02    0.03    0.92    3.03    5.27    5.55    7.08    6.03    7.22    8.42    8.90
 1981 315    37     0     1   150.0   147.7     2.3     0.0   11.79   69.06    0.41    0.04    0.00   11.74    1.84   34.90    0.00    0.38     1.8     5.1    5.29    6.78    5.71    6.83    8.20    8.79    0.57    1.25    0.08    0.04    0.04    0.02    0.02    0.02    0.02    0.95    3.03    5.13    5.33    6.82    5.73    6.85    8.22    8.81
 1981 316    38     0     1   150.1   147.8     2.2     0.0   12.00   69.35    0.43    0.04    0.00   11.96    1.94   34.90    0.00    0.47     1.9     5.0    5.29    6.78    5.71    6.84    8.20    8.79    0.53    1.15    0.08    0.05    0.04    0.02    0.02    0.02    0.02    1.00    3.04    5.11    5.34    6.82    5.73    6.86    8.22    8.81
 1981 317    39     0     1   150.1   148.0     2.1     0.0   12.23   69.62    0.46    0.04    0.00   12.18    2.11   34.90    0.00    0.57     2.0     5.0    5.29    6.78    5.71    6.84    8.21    8.80    0.48    1.05    0.08    0.05    0.04    0.02    0.02    0.02    0.02    1.05    3.02    5.07    5.34    6.82    5.73    6.86    8.22    8.82
 1981 318    40     0     1   150.0   148.1     2.0     0.0   12.44   69.89    0.48    0.04    0.00   12.39    2.28   34.90    0.00    0.67     2.0     4.9    5.29    6.78    5.72    6.84    8.21    8.80    0.44    0.96    0.07    0.05    0.05    0.02    0.02    0.02    0.02    1.12    3.00    5.02    5.34    6.83    5.74    6.87    8.22    8.82
 1981 319    41     0     1   150.1   148.2     1.9     0.0   12.74   70.19    0.50    0.04    0.00   12.70    2.48   34.90    0.00    0.79     2.1     4.9    5.29    6.79    5.72    6.85    8.21    8.80    0.41    0.92    0.07    0.05    0.05    0.03    0.02    0.02    0.02    1.20    3.02    4.96    5.34    6.84    5.74    6.87    8.23    8.82
 1981 320    42     0     1   150.2   148.3     1.9     0.0   13.12   70.52    0.53    0.04    0.00   13.08    2.70   34.90    0.00    0.91     2.2     4.8    5.28    6.79    5.72    6.85    8.21    8.81    0.38    0.89    0.07    0.06    0.06    0.03    0.02    0.02    0.02    1.29    3.08    4.90    5.34    6.85    5.75    6.88    8.23    8.82
 1981 321    43     0     1   150.3   148.4     1.9     0.0   13.59   70.89    0.56    0.04    0.00   13.55    2.96   34.90    0.00    1.04     2.3     4.8    5.28    6.79    5.73    6.86    8.21    8.81    0.36    0.89    0.07    0.07    0.06    0.03    0.03    0.02    0.02    1.40    3.17    4.82    5.35    6.86    5.76    6.88    8.23    8.83
 1981 322    44     0     1   150.5   148.6     2.0     0.0   14.07   71.28    0.58    0.04    0.00   14.02    3.16   34.90    0.00    1.17     2.4     4.7    5.28    6.80    5.73    6.86    8.22    8.81    0.34    0.89    0.07    0.07    0.07    0.03    0.03    0.02    0.02    1.51    3.28    4.76    5.35    6.87    5.77    6.89    8.23    8.83
 1981 323    45     0     1   150.7   148.7     2.0     0.0   14.56   71.69    0.61    0.04    0.00   14.52    3.40   34.90    0.00    1.30     2.5     4.6    5.28    6.81    5.74    6.87    8.22    8.82    0.33    0.89    0.07    0.08    0.08    0.03    0.03    0.02    0.02    1.62    3.40    4.69    5.36    6.88    5.77    6.90    8.24    8.84
 1981 324    46     0     1   151.0   149.0     2.0     0.0   14.99   72.07    0.63    0.04    0.00   14.95    3.43   34.90    0.00    1.42     2.6     4.6    5.29    6.81    5.75    6.87    8.22    8.82    0.31    0.88    0.07    0.09    0.08    0.03    0.03    0.02    0.02    1.73    3.53    4.68    5.37    6.90    5.78    6.90    8.24    8.84
 1981 325    47     0     1   151.3   149.3     2.0     0.0   15.29   72.38    0.66    0.04    0.00   15.25    3.43   34.90    0.00    1.54     2.8     4.6    5.30    6.82    5.75    6.88    8.22    8.82    0.30    0.85    0.07    0.08    0.08    0.04    0.03    0.02    0.02    1.84    3.61    4.68    5.38    6.90    5.79    6.91    8.24    8.84
 1981 326    48     0     1   151.4   149.6     1.9     0.0   15.47   72.63    0.68    0.04    0.00   15.42    3.45   34.90    0.00    1.65     2.8     4.6    5.31    6.83    5.76    6.88    8.22    8.83    0.28    0.79    0.07    0.08    0.08    0.03    0.03    0.02    0.02    1.93    3.62    4.67    5.39    6.91    5.79    6.91    8.24    8.84
 1981 327    49     0     1   151.4   149.7     1.7     0.0   15.60   72.85    0.70    0.04    0.00   15.55    3.54   34.90    0.00    1.76     2.9     4.6    5.31    6.83    5.76    6.89    8.23    8.83    0.26    0.71    0.06    0.07    0.08    0.03    0.03    0.02    0.02    2.01    3.59    4.64    5.39    6.91    5.80    6.92    8.24    8.85
 1981 328    50     0     1   151.3   149.7     1.6     0.0   15.70   73.05    0.71    0.04    0.00   15.66    3.70   34.90    0.00    1.86     2.9     4.5    5.31    6.83    5.77    6.89    8.23    8.83    0.24    0.64    0.06    0.07    0.08    0.03    0.03    0.02    0.02    2.10    3.52    4.58    5.38    6.91    5.80    6.92    8.24    8.85
 1981 329    51     0     1   151.3   149.8     1.5     0.0   15.82   73.23    0.73    0.04    0.00   15.78    3.73   34.90    0.00    1.96     2.9     4.5    5.31    6.84    5.77    6.90    8.23    8.83    0.22    0.58    0.05    0.06    0.08    0.03    0.03    0.02    0.02    2.19    3.50    4.56    5.38    6.92    5.80    6.92    8.24    8.85
 1981 330    52     0     1   151.3   149.8     1.5     0.0   16.03   73.43    0.75    0.04    0.00   15.98    3.92   34.90    0.00    2.07     2.9     4.4    5.30    6.84    5.77    6.90    8.23    8.84    0.21    0.55    0.05    0.06    0.08    0.03    0.03    0.02    0.02    2.28    3.48    4.49    5.37    6.92    5.81    6.93    8.25    8.85
 1981 331    53     0     1   151.4   150.0     1.5     0.0   16.26   73.65    0.78    0.04    0.00   16.22    3.94   34.90    0.00    2.17     3.0     4.4    5.31    6.85    5.78    6.91    8.23    8.84    0.20    0.54    0.05    0.06    0.08    0.03    0.03    0.02    0.02    2.38    3.52    4.49    5.37    6.93    5.81    6.93    8.25    8.86
 1981 332    54     0     1   151.6   150.2     1.4     0.0   16.44   73.84    0.80    0.04    0.00   16.40    3.94   34.90    0.00    2.27     3.0     4.4    5.31    6.85    5.78    6.91    8.23    8.84    0.19    0.52    0.05    0.06    0.08    0.03    0.03    0.02    0.02    2.47    3.54    4.48    5.37    6.94    5.82    6.94    8.25    8.86
 1981 333    55     0     1   151.7   150.3     1.3     0.0   16.57   74.00    0.81    0.04    0.00   16.52    3.94   34.90    0.00    2.37     3.1     4.4    5.31    6.86    5.79    6.91    8.23    8.84    0.18    0.47    0.05    0.06    0.08    0.03    0.03    0.02    0.02    2.55    3.52    4.48    5.37    6.94    5.82    6.94    8.25    8.86
 1981 334    56     0     1   151.7   150.4     1.3     0.0   16.67   74.16    0.83    0.04    0.00   16.62    3.94   34.90    0.00    0.63     3.5     4.7    5.32    6.86    5.79    6.92    8.23    8.84    0.17    0.43    0.05    0.06    0.08    0.03    0.03    0.01    0.02    0.81    3.94    4.79    5.37    6.94    5.82    6.94    8.25    8.86
 1981 335    57     0     1   150.2   149.0     1.2     0.0   16.75   74.26    0.85    0.04    0.00   16.71    3.98   36.38    0.00    0.32     2.4     4.6    5.34    7.04    5.77    6.92    8.19    8.86    0.17    0.41    0.04    0.05    0.08    0.03    0.03    0.01    0.02    0.49    2.84    4.66    5.39    7.12    5.81    6.94    8.20    8.88
 1981 336    58     0     1   141.9   140.7     1.2     0.0   16.81   74.34    0.88    0.04    0.00   16.77    3.98   44.73    0.00    0.31     2.3     4.3    4.78    6.43    5.31    6.49    7.85    8.66    0.16    0.40    0.04    0.05    0.07    0.03    0.02    0.01    0.02    0.48    2.70    4.37    4.83    6.50    5.33    6.51    7.87    8.68
 1981 337    59     0     1   139.2   138.1     1.1     0.0   16.89   74.42    0.90    0.04    0.00   16.84    4.00   47.33    0.00    0.33     2.3     4.2    4.58    6.22    5.19    6.37    7.75    8.59    0.15    0.38    0.04    0.05    0.06    0.03    0.02    0.01    0.02    0.47    2.65    4.27    4.63    6.28    5.22    6.39    7.76    8.61
 1981 338    60     0     1   139.2   138.2     1.0     0.0   16.96   74.54    0.92    0.04    0.00   16.92    4.05   47.33    0.00    0.35     2.3     4.2    4.58    6.22    5.19    6.37    7.75    8.60    0.14    0.35    0.04    0.05    0.06    0.03    0.02    0.01    0.01    0.49    2.63    4.25    4.63    6.28    5.22    6.39    7.76    8.61
 1981 339    61     0     1   139.2   138.2     1.0     0.0   17.05   74.64    0.94    0.04    0.00   17.00    4.08   47.33    0.00    0.40     2.3     4.2    4.58    6.22    5.19    6.37    7.75    8.60    0.12    0.31    0.04    0.05    0.06    0.03    0.02    0.01    0.01    0.52    2.61    4.24    4.63    6.29    5.22    6.39    7.76    8.61
 1981 340    62     0     1   139.2   138.3     0.9     0.0   17.12   74.74    0.96    0.04    0.00   17.08    4.10   47.33    0.00    0.45     2.3     4.2    4.58    6.23    5.20    6.37    7.75    8.60    0.11    0.29    0.04    0.05    0.06    0.03    0.02    0.01    0.01    0.56    2.58    4.23    4.63    6.29    5.22    6.39    7.76    8.61
 1981 341    63     0     1   139.1   138.2     0.9     0.0   17.21   74.85    0.99    0.04    0.00   17.17    4.28   47.33    0.00    0.51     2.3     4.1    4.58    6.23    5.20    6.37    7.75    8.60    0.10    0.26    0.03    0.05    0.06    0.03    0.02    0.01    0.01    0.61    2.52    4.18    4.62    6.29    5.23    6.39    7.76    8.61
 1981 342    64     0     1   139.0   138.0     0.9     0.0   17.39   74.96    1.01    0.04    0.00   17.34    4.53   47.33    0.00    0.57     2.2     4.1    4.56    6.23    5.20    6.38    7.75    8.60    0.10    0.27    0.03    0.05    0.06    0.03    0.02    0.01    0.01    0.67    2.48    4.09    4.61    6.29    5.23    6.40    7.76    8.61
 1981 343    65     0     1   139.1   138.1     0.9     0.0   17.54   75.07    1.03    0.04    0.00   17.50    4.53   47.33    0.00    0.63     2.2     4.1    4.56    6.23    5.21    6.38    7.75    8.60    0.10    0.28    0.03    0.05    0.06    0.03    0.02    0.01    0.01    0.74    2.50    4.09    4.61    6.30    5.24    6.40    7.77    8.61
 1981 344    66     0     1   139.2   138.2     0.9     0.0   17.69   75.18    1.05    0.04    0.00   17.64    4.53   47.33    0.00    0.70     2.2     4.1    4.57    6.24    5.21    6.38    7.75    8.60    0.10    0.27    0.03    0.05    0.07    0.03    0.02    0.01    0.01    0.80    2.50    4.09    4.62    6.30    5.24    6.40    7.77    8.62
 1981 345    67     0     1   139.2   138.3     0.9     0.0   17.79   75.29    1.07    0.04    0.00   17.75    4.53   47.33    0.00    0.77     2.2     4.1    4.57    6.24    5.21    6.38    7.75    8.60    0.09    0.25    0.03    0.05    0.07    0.03    0.02    0.01    0.01    0.86    2.49    4.09    4.62    6.31    5.24    6.40    7.77    8.62
 1981 346    68     0     1   139.2   138.4     0.9     0.0   17.87   75.39    1.09    0.04    0.00   17.83    4.53   47.33    0.00    0.84     2.2     4.1    4.57    6.24    5.22    6.38    7.75    8.60    0.08    0.23    0.03    0.05    0.06    0.03    0.02    0.01    0.01    0.92    2.47    4.08    4.62    6.31    5.25    6.40    7.77    8.62
 1981 347    69     0     1   139.2   138.4     0.8     0.0   17.93   75.47    1.11    0.04    0.00   17.88    4.53   47.33    0.00    0.90     2.2     4.0    4.57    6.25    5.22    6.39    7.75    8.60    0.07    0.21    0.03    0.05    0.06    0.03    0.02    0.01    0.01    0.98    2.46    4.07    4.62    6.31    5.25    6.41    7.77    8.62
 1981 348    70     0     1   139.3   138.5     0.8     0.0   17.98   75.55    1.13    0.04    0.00   17.93    4.53   47.33    0.00    0.97     2.2     4.0    4.58    6.25    5.22    6.39    7.76    8.61    0.07    0.19    0.02    0.04    0.06    0.03    0.02    0.01    0.01    1.04    2.44    4.07    4.62    6.31    5.25    6.41    7.77    8.62
 1981 349    71     0     1   139.3   138.5     0.7     0.0   18.03   75.62    1.15    0.04    0.00   17.99    4.53   47.33    0.00    1.03     2.2     4.0    4.58    6.25    5.22    6.39    7.76    8.61    0.06    0.18    0.02    0.04    0.06    0.02    0.02    0.01    0.01    1.09    2.42    4.06    4.62    6.31    5.25    6.41    7.77    8.62
 1981 350    72     0     1   139.3   138.6     0.7     0.0   18.08   75.69    1.16    0.04    0.00   18.04    4.53   47.33    0.00    1.09     2.2     4.0    4.58    6.25    5.23    6.39    7.76    8.61    0.06    0.16    0.02    0.04    0.05    0.02    0.02    0.01    0.01    1.15    2.41    4.05    4.62    6.31    5.25    6.41    7.77    8.62
 1981 351    73     0     1   139.3   138.6     0.6     0.0   18.12   75.75    1.18    0.04    0.00   18.07    4.53   47.33    0.00    1.15     2.2     4.0    4.59    6.26    5.23    6.39    7.76    8.61    0.05    0.15    0.02    0.03    0.05    0.02    0.02    0.01    0.01    1.20    2.40    4.04    4.62    6.31    5.25    6.41    7.77    8.62
 1981 352    74     0     1   139.3   138.7     0.6     0.0   18.14   75.80    1.19    0.04    0.00   18.09    4.53   47.33    0.00    1.20     2.2     4.0    4.59    6.26    5.23    6.39    7.76    8.61    0.05    0.14    0.02    0.03    0.05    0.02    0.02    0.01    0.01    1.25    2.39    4.04    4.62    6.31    5.25    6.41    7.77    8.62
 1981 353    75     0     1   139.3   138.7     0.6     0.0   18.15   75.83    1.20    0.04    0.00   18.10    4.53   47.33    0.00    1.25     2.2     4.0    4.58    6.26    5.23    6.39    7.76    8.61    0.05    0.14    0.02    0.03    0.05    0.02    0.02    0.01    0.01    1.30    2.38    4.03    4.61    6.31    5.25    6.41    7.77    8.62
 1981 354    76     0     1   139.3   138.7     0.6     0.0   18.15   75.86    1.21    0.04    0.00   18.11    4.53   47.33    0.00    1.30     2.2     4.0    4.58    6.26    5.23    6.39    7.76    8.61    0.05    0.13    0.02    0.03    0.04    0.02    0.01    0.01    0.01    1.35    2.37    4.02    4.61    6.31    5.25    6.41    7.77    8.62
 1981 355    77     0     1   139.3   138.8     0.5     0.0   18.15   75.89    1.21    0.04    0.00   18.11    4.53   47.33    0.00    1.20     2.3     4.0    4.58    6.26    5.23    6.39    7.76    8.61    0.05    0.13    0.02    0.03    0.04    0.02    0.01    0.01    0.01    1.24    2.43    4.02    4.61    6.31    5.25    6.41    7.77    8.62
 1981 356    78     0     1   139.3   138.8     0.5     0.0   18.16   75.92    1.22    0.04    0.00   18.11    4.53   47.33    0.00    1.15     2.3     4.0    4.58    6.26    5.24    6.40    7.76    8.61    0.05    0.12    0.02    0.02    0.04    0.02    0.01    0.01    0.01    1.20    2.47    4.01    4.60    6.31    5.25    6.41    7.77    8.62
 1981 357    79     0     1   139.3   138.8     0.5     0.0   18.17   75.95    1.22    0.04    0.00   18.12    4.53   47.33    0.00    1.14     2.4     4.0    4.58    6.27    5.24    6.40    7.76    8.61    0.04    0.12    0.01    0.02    0.04    0.01    0.01    0.01    0.01    1.18    2.49    4.01    4.60    6.31    5.25    6.41    7.77    8.62
 1981 358    80     0     1   139.3   138.8     0.4     0.0   18.18   75.98    1.22    0.04    0.00   18.14    4.53   47.33    0.00    1.14     2.4     4.0    4.57    6.27    5.24    6.40    7.76    8.61    0.04    0.11    0.01    0.02    0.04    0.01    0.01    0.01    0.01    1.18    2.50    4.01    4.60    6.31    5.25    6.41    7.77    8.62
 1981 359    81     0     1   139.3   138.9     0.4     0.0   18.21   76.02    1.23    0.04    0.00   18.16    4.53   47.33    0.00    1.16     2.4     4.0    4.57    6.27    5.24    6.40    7.76    8.61    0.04    0.11    0.01    0.02    0.04    0.01    0.01    0.01    0.01    1.20    2.50    4.00    4.59    6.31    5.25    6.41    7.77    8.62
 1981 360    82     0     1   139.3   138.9     0.4     0.0   18.24   76.06    1.23    0.04    0.00   18.20    4.53   47.33    0.00    1.18     2.4     4.0    4.57    6.27    5.24    6.40    7.76    8.61    0.04    0.10    0.01    0.02    0.04    0.01    0.01    0.01    0.01    1.22    2.50    4.00    4.59    6.31    5.25    6.41    7.78    8.62
 1981 361    83     0     1   139.3   138.9     0.4     0.0   18.27   76.09    1.24    0.04    0.00   18.23    4.53   47.33    0.00    1.21     2.4     4.0    4.56    6.27    5.24    6.40    7.76    8.61    0.03    0.09    0.01    0.02    0.03    0.01    0.01    0.01    0.01    1.25    2.50    4.00    4.58    6.31    5.25    6.41    7.78    8.61
 1981 362    84     0     1   139.3   138.9     0.4     0.0   18.29   76.12    1.26    0.04    0.00   18.25    4.53   47.33    0.00    1.24     2.4     4.0    4.56    6.27    5.24    6.40    7.76    8.61    0.03    0.09    0.01    0.02    0.03    0.01    0.01    0.01    0.01    1.28    2.49    4.00    4.58    6.31    5.25    6.41    7.78    8.62
 1981 363    85     0     1   139.3   139.0     0.3     0.0   18.31   76.15    1.27    0.04    0.00   18.27    4.53   47.33    0.00    1.28     2.4     4.0    4.56    6.28    5.24    6.40    7.76    8.61    0.03    0.08    0.01    0.01    0.03    0.01    0.01    0.01    0.01    1.31    2.49    4.00    4.57    6.31    5.25    6.41    7.77    8.62
 1981 364    86     0     1   139.3   139.0     0.3     0.0   18.33   76.18    1.28    0.04    0.00   18.28    4.53   47.33    0.00    1.32     2.4     4.0    4.55    6.28    5.24    6.40    7.76    8.61    0.03    0.08    0.01    0.01    0.03    0.01    0.01    0.01    0.01    1.35    2.48    3.99    4.57    6.31    5.25    6.41    7.77    8.61
 1981 365    87     0     1   139.3   139.0     0.3     0.0   18.34   76.20    1.30    0.04    0.00   18.30    4.53   47.33    0.00    1.36     2.4     4.0    4.55    6.28    5.24    6.40    7.76    8.61    0.03    0.07    0.01    0.01    0.03    0.01    0.01    0.01    0.01    1.39    2.47    3.99    4.56    6.31    5.25    6.41    7.77    8.61
 1982 001    88     0     1   139.2   139.0     0.3     0.0   18.36   76.23    1.31    0.04    0.00   18.31    4.53   47.33    0.00    1.40     2.4     4.0    4.54    6.28    5.24    6.40    7.76    8.61    0.03    0.07    0.01    0.01    0.02    0.01    0.00    0.01    0.01    1.43    2.46    3.99    4.56    6.31    5.25    6.41    7.77    8.61
 1982 002    89     0     1   139.2   139.0     0.2     0.0   18.37   76.25    1.32    0.04    0.00   18.33    4.53   47.33    0.00    1.45     2.4     4.0    4.54    6.28    5.25    6.40    7.76    8.61    0.02    0.06    0.01    0.01    0.02    0.01    0.00    0.00    0.01    1.47    2.45    3.99    4.55    6.31    5.25    6.40    7.77    8.61
 1982 003    90     0     1   139.2   139.0     0.2     0.0   18.39   76.26    1.34    0.04    0.00   18.34    4.53   47.33    0.00    1.49     2.4     4.0    4.54    6.28    5.25    6.40    7.76    8.61    0.02    0.06    0.01    0.01    0.02    0.01    0.00    0.01    0.01    1.51    2.45    3.99    4.55    6.31    5.25    6.40    7.77    8.61
 1982 004    91     0     1   139.2   139.0     0.2     0.0   18.40   76.28    1.35    0.04    0.00   18.36    4.53   47.33    0.00    1.22     2.5     4.0    4.53    6.29    5.25    6.40    7.76    8.61    0.02    0.06    0.01    0.01    0.02    0.01    0.00    0.00    0.01    1.25    2.59    3.98    4.54    6.30    5.25    6.40    7.77    8.61
 1982 005    92     0     1   139.2   139.0     0.2     0.0   18.41   76.30    1.36    0.04    0.00   18.37    4.53   47.33    0.00    1.17     2.6     4.0    4.53    6.29    5.25    6.40    7.76    8.60    0.02    0.05    0.01    0.01    0.02    0.01    0.00    0.00    0.01    1.19    2.62    3.99    4.54    6.30    5.25    6.40    7.77    8.61
 1982 006    93     0     1   139.2   139.0     0.2     0.0   18.42   76.31    1.37    0.04    0.00   18.38    4.53   47.33    0.00    1.17     2.6     4.0    4.52    6.29    5.25    6.40    7.76    8.60    0.02    0.05    0.01    0.01    0.02    0.00    0.00    0.00    0.00    1.19    2.62    4.00    4.53    6.30    5.25    6.40    7.76    8.61
 1982 007    94     0     1   139.2   139.0     0.2     0.0   18.43   76.32    1.38    0.04    0.00   18.38    4.53   47.33    0.00    1.17     2.6     4.0    4.52    6.29    5.25    6.40    7.76    8.60    0.02    0.05    0.01    0.01    0.02    0.00    0.00    0.00    0.00    1.19    2.62    4.00    4.53    6.30    5.25    6.40    7.76    8.61
 1982 008    95     0     1   139.2   139.0     0.1     0.0   18.43   76.33    1.38    0.04    0.00   18.39    4.53   47.33    0.00    1.17     2.6     4.0    4.51    6.29    5.25    6.40    7.76    8.60    0.02    0.05    0.01    0.01    0.01    0.00    0.00    0.00    0.00    1.19    2.62    4.00    4.52    6.30    5.25    6.40    7.76    8.60
 1982 009    96     0     1   139.2   139.0     0.1     0.0   18.43   76.34    1.38    0.04    0.00   18.39    4.53   47.33    0.00    1.17     2.6     4.0    4.51    6.29    5.25    6.40    7.76    8.60    0.02    0.05    0.00    0.01    0.01    0.00    0.00    0.00    0.00    1.19    2.63    4.00    4.52    6.30    5.25    6.40    7.76    8.60
 1982 010    97     0     1   139.2   139.0     0.1     0.0   18.44   76.34    1.39    0.04    0.00   18.39    4.53   47.33    0.00    1.18     2.6     4.0    4.50    6.29    5.25    6.40    7.76    8.60    0.02    0.04    0.00    0.01    0.01    0.00    0.00    0.00    0.00    1.20    2.64    4.00    4.51    6.30    5.25    6.40    7.76    8.60
 1982 011    98     0     1   139.2   139.0     0.1     0.0   18.44   76.35    1.39    0.04    0.00   18.39    4.53   47.33    0.00    1.19     2.6     4.0    4.50    6.29    5.25    6.40    7.76    8.60    0.02    0.04    0.00    0.01    0.01    0.00    0.00    0.00    0.00    1.21    2.64    4.00    4.51    6.30    5.25    6.40    7.76    8.60
 1982 012    99     0     1   139.2   139.0     0.1     0.0   18.44   76.35    1.39    0.04    0.00   18.39    4.53   47.33    0.00    1.20     2.6     4.0    4.50    6.29    5.25    6.40    7.76    8.60    0.02    0.04    0.00    0.01    0.01    0.00    0.00    0.00    0.00    1.22    2.64    4.00    4.50    6.30    5.25    6.40    7.76    8.60
 1982 013   100     0     1   139.2   139.0     0.1     0.0   18.44   76.35    1.39    0.04    0.00   18.39    4.53   47.33    0.00    1.21     2.6     4.0    4.49    6.29    5.25    6.40    7.76    8.60    0.02    0.04    0.00    0.01    0.01    0.00    0.00    0.00    0.00    1.23    2.64    4.00    4.50    6.30    5.25    6.40    7.76    8.60
 1982 014   101     0     1   139.2   139.0     0.1     0.0   18.44   76.36    1.39    0.04    0.00   18.39    4.53   47.33    0.00    1.15     2.6     4.0    4.49    6.29    5.25    6.40    7.76    8.60    0.02    0.04    0.00    0.01    0.01    0.00    0.00    0.00    0.00    1.17    2.68    4.00    4.49    6.30    5.25    6.40    7.76    8.60
 1982 015   102     0     1   139.2   139.0     0.1     0.0   18.44   76.36    1.39    0.04    0.00   18.39    4.53   47.33    0.00    1.15     2.6     4.0    4.48    6.29    5.25    6.40    7.76    8.60    0.02    0.04    0.00    0.01    0.01    0.00    0.00    0.00    0.00    1.16    2.69    4.01    4.49    6.30    5.25    6.40    7.76    8.60
 1982 016   103     0     1   139.2   139.0     0.1     0.0   18.44   76.37    1.39    0.04    0.00   18.39    4.53   47.33    0.00    1.15     2.7     4.0    4.48    6.29    5.25    6.40    7.76    8.60    0.02    0.04    0.00    0.01    0.01    0.00    0.00    0.00    0.00    1.16    2.69    4.01    4.48    6.30    5.25    6.40    7.76    8.60
 1982 017   104     0     1   139.2   139.1     0.1     0.0   18.44   76.37    1.39    0.04    0.00   18.39    4.53   47.33    0.00    1.15     2.7     4.0    4.48    6.29    5.25    6.40    7.76    8.60    0.02    0.04    0.00    0.01    0.01    0.00    0.00    0.00    0.00    1.17    2.70    4.01    4.48    6.30    5.25    6.40    7.76    8.60
 1982 018   105     0     1   139.2   139.1     0.1     0.0   18.44   76.37    1.39    0.04    0.00   18.39    4.53   47.33    0.00    1.16     2.7     4.0    4.47    6.29    5.25    6.40    7.76    8.60    0.01    0.04    0.00    0.01    0.01    0.00    0.00    0.00    0.00    1.17    2.70    4.01    4.48    6.30    5.25    6.40    7.76    8.60
 1982 019   106     0     1   139.2   139.1     0.1     0.0   18.44   76.38    1.39    0.04    0.00   18.39    4.53   47.33    0.00    1.17     2.7     4.0    4.47    6.29    5.25    6.40    7.76    8.60    0.01    0.03    0.00    0.00    0.01    0.00    0.00    0.00    0.00    1.19    2.70    4.01    4.47    6.29    5.25    6.40    7.76    8.60
 1982 020   107     0     1   139.2   139.1     0.1     0.0   18.44   76.38    1.39    0.04    0.00   18.40    4.53   47.33    0.00    1.20     2.7     4.0    4.47    6.28    5.25    6.40    7.76    8.60    0.01    0.03    0.00    0.00    0.01    0.00    0.00    0.00    0.00    1.21    2.70    4.01    4.47    6.29    5.25    6.40    7.76    8.60
 1982 021   108     0     1   139.2   139.1     0.1     0.0   18.44   76.39    1.39    0.04    0.00   18.40    4.53   47.33    0.00    1.22     2.7     4.0    4.46    6.28    5.25    6.40    7.76    8.60    0.01    0.03    0.00    0.00    0.01    0.00    0.00    0.00    0.00    1.24    2.69    4.01    4.47    6.29    5.25    6.40    7.76    8.60
 1982 022   109     0     1   139.2   139.1     0.1     0.0   18.45   76.39    1.39    0.04    0.00   18.40    4.53   47.33    0.00    1.25     2.7     4.0    4.46    6.28    5.25    6.40    7.76    8.60    0.01    0.03    0.00    0.00    0.01    0.00    0.00    0.00    0.00    1.26    2.68    4.01    4.46    6.29    5.25    6.40    7.76    8.60
 1982 023   110     0     1   139.2   139.1     0.1     0.0   18.45   76.40    1.39    0.04    0.00   18.41    4.53   47.33    0.00    1.26     2.7     4.0    4.46    6.28    5.25    6.40    7.76    8.60    0.01    0.03    0.00    0.00    0.01    0.00    0.00    0.00    0.00    1.28    2.68    4.01    4.46    6.29    5.25    6.40    7.76    8.60
 1982 024   111     0     1   139.2   139.1     0.1     0.0   18.45   76.40    1.40    0.04    0.00   18.41    4.53   47.33    0.00    1.28     2.7     4.0    4.45    6.28    5.25    6.40    7.76    8.60    0.01    0.03    0.00    0.00    0.01    0.00    0.00    0.00    0.00    1.29    2.68    4.01    4.46    6.29    5.25    6.40    7.76    8.60
 1982 025   112     0     1   139.2   139.1     0.1     0.0   18.46   76.41    1.40    0.04    0.00   18.41    4.53   47.33    0.00    1.00     2.8     4.0    4.45    6.28    5.25    6.40    7.76    8.60    0.01    0.03    0.00    0.00    0.01    0.00    0.00    0.00    0.00    1.01    2.83    4.01    4.45    6.29    5.25    6.40    7.76    8.60
 1982 026   113     0     1   139.1   139.1     0.1     0.0   18.46   76.41    1.40    0.04    0.00   18.41    4.53   47.33    0.00    0.71     2.6     4.3    4.45    6.28    5.25    6.40    7.76    8.60    0.01    0.03    0.00    0.00    0.01    0.00    0.00    0.00    0.00    0.72    2.61    4.26    4.45    6.29    5.25    6.40    7.76    8.60
 1982 027   114     0     1   139.1   139.1     0.1     0.0   18.46   76.41    1.41    0.04    0.00   18.41    4.53   47.33    0.00    0.71     2.5     4.2    4.56    6.28    5.25    6.40    7.76    8.60    0.01    0.02    0.00    0.00    0.01    0.00    0.00    0.00    0.00    0.72    2.50    4.21    4.56    6.29    5.25    6.40    7.76    8.60
 1982 028   115     0     1   139.1   139.1     0.1     0.0   18.46   76.42    1.41    0.04    0.00   18.42    4.53   47.33    0.00    0.71     2.4     4.2    4.59    6.28    5.25    6.40    7.76    8.60    0.01    0.02    0.00    0.00    0.00    0.00    0.00    0.00    0.00    0.72    2.47    4.20    4.59    6.29    5.25    6.40    7.76    8.60
 1982 029   116     0     1   139.1   139.1     0.1     0.0   18.47   76.42    1.42    0.04    0.00   18.42    4.53   47.33    0.00    0.74     2.4     4.2    4.59    6.28    5.25    6.40    7.76    8.60    0.01    0.02    0.00    0.00    0.00    0.00    0.00    0.00    0.00    0.75    2.46    4.20    4.59    6.29    5.25    6.40    7.76    8.60
 1982 030   117     0     1   139.1   139.1     0.1     0.0   18.49   76.43    1.42    0.04    0.00   18.44    4.53   47.33    0.00    0.67     2.4     4.2    4.59    6.28    5.25    6.40    7.76    8.59    0.01    0.02    0.00    0.00    0.00    0.00    0.00    0.00    0.00    0.67    2.45    4.23    4.59    6.29    5.25    6.40    7.76    8.60
 1982 031   118     0     1   139.2   139.1     0.1     0.0   18.51   76.43    1.43    0.04    0.00   18.46    4.53   47.33    0.00    0.63     2.4     4.2    4.57    6.38    5.25    6.40    7.76    8.59    0.01    0.02    0.00    0.00    0.00    0.00    0.00    0.00    0.00    0.64    2.40    4.20    4.57    6.38    5.25    6.40    7.76    8.59
 1982 032   119     0     1   139.1   139.0     0.1     0.0   18.52   76.44    1.44    0.04    0.00   18.47    4.53   47.41    0.00    0.62     2.4     4.2    4.55    6.40    5.25    6.40    7.76    8.59    0.01    0.02    0.00    0.00    0.00    0.00    0.00    0.00    0.00    0.63    2.39    4.19    4.55    6.40    5.25    6.40    7.76    8.59
 1982 033   120     0     1   139.0   139.0     0.1     0.0   18.52   76.44    1.44    0.04    0.00   18.48    4.53   47.41    0.00    0.62     2.4     4.2    4.55    6.40    5.25    6.40    7.76    8.59    0.01    0.02    0.00    0.00    0.00    0.00    0.00    0.00    0.00    0.63    2.39    4.19    4.55    6.40    5.25    6.40    7.76    8.59
 1982 034   121     0     1   139.0   139.0     0.1     0.0   18.52   76.45    1.45    0.04    0.00   18.48    4.53   47.41    0.00    0.63     2.4     4.2    4.55    6.40    5.25    6.40    7.76    8.59    0.01    0.02    0.00    0.00    0.00    0.00    0.00    0.00    0.00    0.63    2.38    4.19    4.55    6.40    5.25    6.40    7.76    8.59
 1982 035   122     0     1   139.0   139.0     0.0     0.0   18.52   76.45    1.45    0.04    0.00   18.48    4.53   47.41    0.00    0.63     2.4     4.2    4.55    6.40    5.25    6.40    7.76    8.59    0.01    0.02    0.00    0.00    0.00    0.00    0.00    0.00    0.00    0.64    2.38    4.19    4.55    6.40    5.25    6.40    7.76    8.59
 1982 036   123     0     1   139.0   139.0     0.0     0.0   18.52   76.45    1.45    0.04    0.00   18.48    4.53   47.41    0.00    0.64     2.4     4.2    4.55    6.40    5.25    6.40    7.76    8.59    0.01    0.02    0.00    0.00    0.00    0.00    0.00    0.00    0.00    0.65    2.38    4.19    4.55    6.40    5.25    6.40    7.76    8.59
 1982 037   124     0     1   139.0   139.0     0.0     0.0   18.52   76.45    1.45    0.04    0.00   18.48    4.53   47.41    0.00    0.65     2.4     4.2    4.55    6.40    5.25    6.40    7.76    8.59    0.01    0.02    0.00    0.00    0.00    0.00    0.00    0.00    0.00    0.65    2.38    4.19    4.55    6.40    5.25    6.40    7.76    8.59
 1982 038   125     0     1   139.0   139.0     0.0     0.0   18.52   76.45    1.45    0.04    0.00   18.48    4.53   47.41    0.00    0.60     2.3     4.2    4.55    6.40    5.25    6.40    7.76    8.59    0.01    0.01    0.00    0.00    0.00    0.00    0.00    0.00    0.00    0.60    2.35    4.22    4.55    6.40    5.25    6.40    7.76    8.59
 1982 039   126     0     1   139.0   139.0     0.0     0.0   18.52   76.45    1.45    0.04    0.00   18.48    4.53   47.41    0.00    0.60     2.3     4.2    4.55    6.40    5.25    6.40    7.76    8.59    0.01    0.01    0.00    0.00    0.00    0.00    0.00    0.00    0.00    0.60    2.35    4.22    4.55    6.40    5.25    6.40    7.76    8.59
 1982 040   127     0     1   139.0   139.0     0.0     0.0   18.52   76.46    1.45    0.04    0.00   18.48    4.53   47.41    0.00    0.60     2.3     4.2    4.55    6.40    5.25    6.40    7.76    8.59    0.01    0.01    0.00    0.00    0.00    0.00    0.00    0.00    0.00    0.60    2.35    4.22    4.55    6.40    5.25    6.40    7.76    8.59
 1982 041   128     0     1   139.0   139.0     0.0     0.0   18.52   76.46    1.45    0.04    0.00   18.48    4.53   47.41    0.00    0.60     2.3     4.2    4.55    6.40    5.25    6.40    7.76    8.59    0.01    0.01    0.00    0.00    0.00    0.00    0.00    0.00    0.00    0.60    2.35    4.22    4.55    6.40    5.25    6.40    7.76    8.59
 1982 042   129     0     1   139.0   139.0     0.0     0.0   18.52   76.46    1.45    0.04    0.00   18.48    4.53   47.41    0.00    0.60     2.3     4.2    4.55    6.40    5.25    6.40    7.76    8.59    0.01    0.01    0.00    0.00    0.00    0.00    0.00    0.00    0.00    0.60    2.35    4.22    4.55    6.40    5.25    6.40    7.76    8.59
 1982 043   130     0     1   137.2   137.2     0.0     0.0   18.52   76.46    1.45    0.04    0.00   18.48    4.53   49.23    0.00    0.28     1.7     3.9    4.32    6.50    5.29    6.36    7.73    8.60    0.01    0.01    0.00    0.00    0.00    0.00    0.00    0.00    0.00    0.28    1.71    3.89    4.32    6.51    5.29    6.36    7.73    8.60
 1982 044   131     0     1   134.8   134.8     0.0     0.0   18.52   76.46    1.45    0.04    0.00   18.48    4.53   51.65    0.00    0.21     1.5     3.7    4.05    6.20    5.17    6.28    7.70    8.62    0.01    0.01    0.00    0.00    0.00    0.00    0.00    0.00    0.00    0.22    1.53    3.67    4.05    6.21    5.17    6.28    7.70    8.62
 1982 045   132     0     1   131.8   131.8     0.0     0.0   18.52   76.46    1.45    0.04    0.00   18.48    4.53   54.65    0.00    0.16     1.4     3.5    3.82    5.91    5.00    6.14    7.62    8.62    0.01    0.01    0.00    0.00    0.00    0.00    0.00    0.00    0.00    0.17    1.37    3.47    3.82    5.91    5.00    6.14    7.62    8.62
 1982 046   133     0     1   120.4   120.4     0.0     0.0   18.52   76.46    1.45    0.04    0.00   18.48    4.53   66.06    0.00    0.16     1.3     3.3    3.49    5.32    4.52    5.54    6.93    7.98    0.01    0.01    0.00    0.00    0.00    0.00    0.00    0.00    0.00    0.17    1.31    3.29    3.49    5.33    4.52    5.54    6.93    7.98
 1982 047   134     0     1   119.1   119.1     0.0     0.0   18.52   76.46    1.45    0.04    0.00   18.48    4.53   67.34    0.00    0.17     1.3     3.2    3.41    5.21    4.45    5.47    6.88    7.96    0.00    0.01    0.00    0.00    0.00    0.00    0.00    0.00    0.00    0.17    1.29    3.24    3.41    5.22    4.45    5.47    6.88    7.96
 1982 048   135     0     1   117.7   117.7     0.0     0.0   18.53   76.46    1.45    0.04    0.00   18.48    4.53   68.72    0.00    0.17     1.3     3.2    3.33    5.06    4.39    5.41    6.82    7.91    0.00    0.01    0.00    0.00    0.00    0.00    0.00    0.00    0.00    0.18    1.29    3.21    3.33    5.06    4.39    5.41    6.82    7.91
 1982 049   136     0     1   116.5   116.4     0.0     0.0   18.53   76.47    1.45    0.04    0.00   18.49    4.53   69.98    0.00    0.15     1.2     3.2    3.31    5.03    4.32    5.33    6.75    7.86    0.00    0.01    0.00    0.00    0.00    0.00    0.00    0.00    0.00    0.15    1.23    3.18    3.31    5.03    4.32    5.33    6.75    7.86
 1982 050   137     0     1   115.3   115.2     0.0     0.0   18.54   76.47    1.45    0.04    0.00   18.50    4.53   71.21    0.00    0.15     1.2     3.1    3.23    4.95    4.27    5.27    6.69    7.81    0.00    0.01    0.00    0.00    0.00    0.00    0.00    0.00    0.00    0.15    1.20    3.13    3.23    4.95    4.27    5.27    6.69    7.82
 1982 051   138     0     1   115.3   115.2     0.1     0.0   18.56   76.47    1.45    0.04    0.00   18.52    4.53   71.21    0.00    0.15     1.2     3.1    3.23    4.95    4.27    5.27    6.69    7.82    0.00    0.01    0.00    0.00    0.00    0.00    0.00    0.00    0.00    0.16    1.20    3.13    3.23    4.95    4.27    5.28    6.69    7.82
 1982 052   139     0     1   115.3   115.2     0.1     0.0   18.64   76.48    1.45    0.04    0.00   18.60    4.53   71.21    0.00    0.17     1.2     3.1    3.23    4.95    4.27    5.27    6.69    7.81    0.02    0.04    0.00    0.00    0.00    0.00    0.00    0.00    0.00    0.19    1.22    3.13    3.23    4.96    4.27    5.28    6.70    7.82
 1982 053   140     0     1   115.5   115.2     0.2     0.0   18.77   76.49    1.46    0.04    0.00   18.73    4.53   71.21    0.00    0.20     1.2     3.1    3.23    4.95    4.27    5.27    6.69    7.81    0.04    0.09    0.01    0.01    0.01    0.00    0.00    0.00    0.00    0.24    1.27    3.13    3.23    4.96    4.27    5.28    6.70    7.82
 1982 054   141     0     1   115.6   115.2     0.4     0.0   18.98   76.52    1.47    0.04    0.00   18.93    4.53   71.21    0.00    0.23     1.2     3.1    3.23    4.95    4.27    5.27    6.69    7.81    0.06    0.18    0.01    0.01    0.01    0.01    0.01    0.00    0.00    0.30    1.35    3.14    3.24    4.96    4.27    5.28    6.70    7.82
 1982 055   142     0     1   115.8   115.3     0.5     0.0   19.20   76.58    1.49    0.04    0.00   19.16    4.53   71.21    0.00    0.28     1.2     3.1    3.23    4.95    4.27    5.27    6.69    7.81    0.09    0.26    0.02    0.02    0.02    0.01    0.01    0.01    0.00    0.37    1.44    3.14    3.25    4.97    4.28    5.28    6.70    7.82
 1982 056   143     0     1   116.0   115.3     0.6     0.0   19.38   76.65    1.50    0.04    0.00   19.33    4.53   71.21    0.00    0.32     1.2     3.1    3.23    4.95    4.27    5.27    6.69    7.81    0.11    0.30    0.02    0.02    0.02    0.01    0.01    0.01    0.01    0.43    1.51    3.15    3.25    4.97    4.28    5.28    6.70    7.82
 1982 057   144     0     1   116.0   115.4     0.6     0.0   19.44   76.71    1.51    0.04    0.00   19.39    4.53   71.21    0.00    0.37     1.2     3.1    3.23    4.95    4.27    5.27    6.69    7.81    0.10    0.29    0.02    0.02    0.02    0.01    0.01    0.01    0.00    0.47    1.52    3.14    3.25    4.97    4.28    5.28    6.70    7.82
 1982 058   145     0     1   116.0   115.4     0.6     0.0   19.45   76.76    1.52    0.04    0.00   19.40    4.53   71.21    0.00    0.41     1.2     3.1    3.23    4.95    4.27    5.27    6.69    7.81    0.09    0.26    0.02    0.02    0.02    0.01    0.01    0.00    0.00    0.51    1.51    3.14    3.25    4.97    4.28    5.28    6.69    7.82
 1982 059   146     0     1   116.0   115.5     0.5     0.0   19.45   76.81    1.53    0.04    0.00   19.40    4.53   71.21    0.00    0.46     1.3     3.1    3.23    4.95    4.27    5.27    6.69    7.81    0.09    0.24    0.02    0.02    0.02    0.01    0.01    0.00    0.00    0.54    1.50    3.13    3.25    4.97    4.28    5.28    6.69    7.81
 1982 060   147     0     1   116.0   115.5     0.5     0.0   19.45   76.84    1.53    0.04    0.00   19.40    4.53   71.21    0.00    0.50     1.3     3.1    3.23    4.95    4.27    5.28    6.69    7.81    0.08    0.23    0.02    0.02    0.02    0.01    0.01    0.00    0.00    0.58    1.49    3.13    3.25    4.97    4.28    5.28    6.69    7.81
 1982 061   148     0     1   116.0   115.5     0.4     0.0   19.45   76.88    1.53    0.04    0.00   19.41    4.53   71.21    0.00    0.54     1.3     3.1    3.23    4.95    4.27    5.28    6.69    7.81    0.08    0.21    0.02    0.02    0.02    0.01    0.01    0.00    0.00    0.62    1.48    3.12    3.25    4.97    4.28    5.28    6.69    7.81
 1982 062   149     0     1   116.0   115.6     0.4     0.0   19.45   76.91    1.54    0.04    0.00   19.41    4.53   71.21    0.00    0.59     1.3     3.1    3.23    4.96    4.27    5.28    6.69    7.81    0.07    0.19    0.01    0.02    0.02    0.01    0.00    0.00    0.00    0.66    1.47    3.12    3.25    4.97    4.28    5.28    6.70    7.81
 1982 063   150     0     1   116.0   115.6     0.4     0.0   19.46   76.95    1.54    0.04    0.00   19.42    4.53   71.21    0.00    0.63     1.3     3.1    3.23    4.96    4.27    5.28    6.69    7.81    0.06    0.17    0.01    0.01    0.02    0.01    0.00    0.00    0.00    0.70    1.47    3.11    3.25    4.97    4.28    5.28    6.70    7.81
 1982 064   151     0     1   116.0   115.6     0.3     0.0   19.46   76.98    1.54    0.04    0.00   19.42    4.53   71.21    0.00    0.68     1.3     3.1    3.23    4.96    4.27    5.28    6.69    7.81    0.06    0.16    0.01    0.01    0.01    0.01    0.00    0.00    0.00    0.73    1.46    3.11    3.25    4.97    4.28    5.28    6.70    7.81
 1982 065   152     0     1   116.0   115.6     0.3     0.0   19.46   77.01    1.55    0.04    0.00   19.42    4.53   71.21    0.00    0.72     1.3     3.1    3.23    4.96    4.27    5.28    6.69    7.81    0.05    0.15    0.01    0.01    0.01    0.01    0.00    0.00    0.00    0.77    1.45    3.10    3.24    4.97    4.28    5.28    6.70    7.81
 1982 066   153     0     1   116.0   115.7     0.3     0.0   19.46   77.02    1.55    0.04    0.00   19.42    4.53   71.21    0.00    0.76     1.3     3.1    3.23    4.96    4.27    5.28    6.69    7.81    0.05    0.14    0.01    0.01    0.01    0.00    0.00    0.00    0.00    0.81    1.44    3.09    3.24    4.97    4.28    5.28    6.70    7.81
 1982 067   154     0     1   116.0   115.7     0.3     0.0   19.46   77.04    1.55    0.04    0.00   19.42    4.53   71.21    0.00    0.80     1.3     3.1    3.23    4.96    4.27    5.28    6.69    7.81    0.05    0.13    0.01    0.01    0.01    0.00    0.00    0.00    0.00    0.85    1.44    3.09    3.24    4.97    4.28    5.28    6.70    7.81
 1982 068   155     0     1   116.0   115.7     0.3     0.0   19.46   77.05    1.55    0.04    0.00   19.42    4.53   71.21    0.00    0.84     1.3     3.1    3.23    4.96    4.27    5.28    6.69    7.81    0.05    0.12    0.01    0.01    0.01    0.00    0.00    0.00    0.00    0.88    1.43    3.08    3.24    4.97    4.28    5.28    6.70    7.81
 1982 069   156     0     1   116.0   115.7     0.2     0.0   19.46   77.07    1.55    0.04    0.00   19.42    4.53   71.21    0.00    0.88     1.3     3.1    3.22    4.96    4.27    5.28    6.69    7.81    0.04    0.12    0.01    0.01    0.01    0.00    0.00    0.00    0.00    0.92    1.42    3.08    3.23    4.97    4.28    5.28    6.70    7.81
 1982 070   157     0     1   116.0   115.7     0.2     0.0   19.46   77.09    1.55    0.04    0.00   19.42    4.53   71.21    0.00    0.92     1.3     3.1    3.22    4.96    4.27    5.28    6.69    7.81    0.04    0.11    0.01    0.01    0.01    0.00    0.00    0.00    0.00    0.96    1.42    3.08    3.23    4.97    4.28    5.28    6.70    7.81
 1982 071   158     0     1   116.0   115.7     0.2     0.0   19.46   77.11    1.55    0.04    0.00   19.42    4.53   71.21    0.00    0.95     1.3     3.1    3.22    4.96    4.27    5.28    6.69    7.81    0.04    0.10    0.01    0.01    0.01    0.00    0.00    0.00    0.00    0.99    1.41    3.07    3.23    4.97    4.28    5.28    6.70    7.81
 1982 072   159     0     1   116.0   115.8     0.3     0.0   19.53   77.13    1.55    0.04    0.00   19.49    4.53   71.21    0.00    0.99     1.3     3.1    3.22    4.96    4.27    5.28    6.69    7.81    0.04    0.12    0.01    0.01    0.01    0.00    0.00    0.00    0.00    1.04    1.44    3.07    3.22    4.97    4.28    5.28    6.70    7.81
 1982 073   160     0     1   116.1   115.8     0.3     0.0   19.64   77.16    1.55    0.04    0.00   19.59    4.53   71.21    0.00    1.03     1.3     3.1    3.21    4.96    4.27    5.28    6.69    7.81    0.06    0.15    0.01    0.01    0.01    0.01    0.00    0.00    0.00    1.09    1.48    3.07    3.22    4.98    4.28    5.28    6.70    7.81
 1982 074   161     0     1   116.3   115.8     0.4     0.0   19.80   77.20    1.55    0.04    0.00   19.75    4.53   71.21    0.00    0.30     1.3     3.2    3.33    4.96    4.28    5.28    6.69    7.81    0.08    0.20    0.02    0.02    0.02    0.01    0.01    0.00    0.00    0.38    1.46    3.26    3.34    4.98    4.28    5.29    6.70    7.81
 1982 075   162     0     1   114.7   114.1     0.6     0.0   20.01   77.23    1.55    0.04    0.00   19.97    4.53   72.97    0.00    0.16     0.9     2.8    3.08    4.90    4.28    5.28    6.70    7.82    0.17    0.28    0.02    0.02    0.02    0.01    0.01    0.01    0.00    0.32    1.20    2.84    3.10    4.92    4.29    5.29    6.70    7.82
 1982 076   163     0     1   105.0   104.3     0.8     0.0   20.25   77.28    1.59    0.04    0.00   20.20    4.53   82.83    0.00    0.18     0.9     2.6    2.80    4.37    3.84    4.77    6.12    7.27    0.23    0.37    0.03    0.03    0.02    0.01    0.01    0.00    0.00    0.41    1.26    2.68    2.82    4.39    3.85    4.77    6.12    7.27
 1982 077   164     0     1   103.3   102.4     0.9     0.0   20.50   77.35    1.60    0.04    0.00   20.46    4.53   84.77    0.00    0.22     0.9     2.6    2.70    4.19    3.75    4.68    6.02    7.18    0.26    0.48    0.04    0.03    0.02    0.01    0.01    0.01    0.00    0.48    1.39    2.64    2.73    4.21    3.76    4.68    6.03    7.19
 1982 078   165     0     1   102.6   101.5     1.1     0.0   20.78   77.48    1.61    0.04    0.00   20.74    4.53   85.78    0.00    0.15     0.8     2.4    2.66    4.17    3.71    4.65    6.01    7.19    0.29    0.54    0.04    0.04    0.03    0.01    0.01    0.01    0.00    0.44    1.33    2.48    2.70    4.20    3.72    4.65    6.02    7.20
 1982 079   166     0     1    96.9    95.5     1.3     0.0   21.15   77.58    1.65    0.04    0.00   21.10    4.53   91.77    0.00    0.20     0.8     2.3    2.44    3.82    3.42    4.31    5.70    6.92    0.39    0.66    0.05    0.04    0.03    0.01    0.01    0.01    0.00    0.59    1.46    2.36    2.48    3.85    3.43    4.32    5.71    6.92
 1982 080   167     0     1    95.7    94.2     1.5     0.0   21.50   77.71    1.66    0.04    0.00   21.46    4.53   93.23    0.00    0.28     0.9     2.3    2.37    3.70    3.36    4.24    5.63    6.85    0.42    0.78    0.06    0.05    0.03    0.02    0.01    0.01    0.01    0.69    1.63    2.33    2.41    3.74    3.37    4.25    5.64    6.85
 1982 081   168     0     1    95.9    94.4     1.5     0.0   21.72   77.91    1.67    0.04    0.00   21.67    4.53   93.23    0.00    0.35     1.0     2.3    2.37    3.70    3.36    4.24    5.63    6.85    0.40    0.78    0.06    0.05    0.04    0.02    0.01    0.01    0.01    0.76    1.74    2.34    2.42    3.74    3.38    4.25    5.64    6.85
 1982 082   169     0     1    96.0    94.6     1.5     0.0   21.83   78.09    1.68    0.04    0.00   21.78    4.53   93.23    0.00    0.43     1.0     2.3    2.37    3.71    3.36    4.24    5.63    6.85    0.37    0.74    0.06    0.05    0.04    0.01    0.01    0.01    0.00    0.80    1.79    2.34    2.42    3.74    3.38    4.25    5.64    6.85
 1982 083   170     0     1    96.1    94.7     1.4     0.0   21.91   78.25    1.69    0.04    0.00   21.87    4.53   93.23    0.00    0.50     1.1     2.3    2.38    3.71    3.36    4.24    5.63    6.85    0.35    0.70    0.05    0.05    0.04    0.01    0.01    0.00    0.00    0.85    1.82    2.34    2.42    3.74    3.38    4.25    5.63    6.85
 1982 084   171     0     1    95.8    94.6     1.2     0.0   21.92   78.38    1.69    0.04    0.00   21.88    4.80   93.23    0.00    0.57     1.1     2.2    2.36    3.70    3.36    4.24    5.63    6.85    0.31    0.61    0.05    0.04    0.03    0.01    0.01    0.00    0.00    0.88    1.75    2.26    2.41    3.73    3.38    4.25    5.63    6.85
 1982 085   172     0     1    95.6    94.5     1.1     0.0   21.92   78.49    1.69    0.04    0.00   21.88    5.01   93.23    0.00    0.63     1.1     2.2    2.35    3.69    3.36    4.25    5.63    6.85    0.28    0.54    0.04    0.04    0.03    0.01    0.01    0.00    0.00    0.91    1.68    2.20    2.39    3.72    3.38    4.25    5.63    6.85
 1982 086   173     0     1    95.5    94.5     1.0     0.0   21.92   78.58    1.69    0.04    0.00   21.88    5.16   93.23    0.00    0.68     1.2     2.1    2.34    3.68    3.36    4.25    5.63    6.85    0.26    0.48    0.04    0.04    0.03    0.01    0.01    0.00    0.00    0.94    1.64    2.16    2.38    3.71    3.37    4.25    5.63    6.85
 1982 087   174     0     1    95.1    94.2     0.9     0.0   21.92   78.68    1.69    0.04    0.00   21.88    5.56   93.23    0.00    0.73     1.1     2.0    2.31    3.65    3.36    4.25    5.63    6.85    0.23    0.43    0.04    0.04    0.03    0.01    0.01    0.00    0.00    0.96    1.57    2.03    2.35    3.68    3.37    4.25    5.63    6.85
 1982 088   175     0     1    94.6    93.8     0.8     0.0   21.92   78.76    1.69    0.04    0.00   21.88    6.00   93.23    0.00    0.77     1.1     1.9    2.28    3.62    3.36    4.25    5.63    6.85    0.21    0.39    0.03    0.03    0.03    0.01    0.01    0.00    0.00    0.98    1.49    1.91    2.31    3.65    3.37    4.25    5.63    6.85
 1982 089   176     0     1    94.2    93.5     0.7     0.0   21.93   78.84    1.69    0.04    0.00   21.89    6.42   93.23    0.00    0.82     1.1     1.8    2.24    3.59    3.36    4.25    5.63    6.85    0.19    0.35    0.03    0.03    0.03    0.01    0.01    0.00    0.00    1.01    1.42    1.78    2.27    3.61    3.37    4.25    5.63    6.85
 1982 090   177     0     1    93.9    93.1     0.7     0.0   22.03   78.93    1.69    0.04    0.00   21.99    6.84   93.23    0.00    0.87     1.0     1.6    2.21    3.55    3.36    4.25    5.63    6.85    0.20    0.36    0.03    0.03    0.03    0.01    0.01    0.00    0.00    1.07    1.39    1.67    2.24    3.58    3.37    4.25    5.63    6.85
 1982 091   178     0     1    93.6    92.8     0.8     0.0   22.19   79.03    1.69    0.04    0.00   22.15    7.25   93.23    0.00    0.91     1.0     1.5    2.17    3.51    3.36    4.25    5.63    6.85    0.21    0.38    0.03    0.03    0.03    0.01    0.01    0.00    0.00    1.13    1.40    1.57    2.20    3.54    3.36    4.25    5.64    6.85
 1982 092   179     0     1    93.4    92.5     0.9     0.0   22.41   79.15    1.69    0.04    0.00   22.36    7.67   93.23    0.00    0.97     1.0     1.4    2.13    3.47    3.35    4.25    5.63    6.85    0.23    0.42    0.04    0.03    0.03    0.01    0.01    0.00    0.00    1.20    1.44    1.48    2.17    3.50    3.36    4.26    5.64    6.85
 1982 093   180     0     1    93.3    92.3     1.0     0.0   22.69   79.31    1.70    0.04    0.00   22.65    8.09   93.23    0.00    1.03     1.0     1.4    2.10    3.43    3.35    4.25    5.63    6.85    0.24    0.47    0.04    0.04    0.04    0.01    0.01    0.01    0.00    1.28    1.50    1.39    2.14    3.46    3.36    4.26    5.64    6.85
 1982 094   181     0     1    93.1    92.0     1.1     0.0   22.94   79.48    1.70    0.04    0.00   22.90    8.50   93.23    0.00    1.10     1.0     1.3    2.06    3.38    3.35    4.25    5.63    6.85    0.25    0.50    0.05    0.04    0.04    0.02    0.01    0.01    0.00    1.35    1.55    1.31    2.10    3.42    3.36    4.26    5.64    6.85
 1982 095   182     0     1    92.8    91.7     1.1     0.0   23.11   79.63    1.71    0.04    0.00   23.07    8.92   93.23    0.00    1.16     1.1     1.2    2.02    3.33    3.34    4.25    5.63    6.85    0.25    0.51    0.05    0.04    0.04    0.02    0.01    0.01    0.00    1.41    1.57    1.23    2.06    3.37    3.36    4.26    5.64    6.85
 1982 096   183     0     1    92.7    91.6     1.1     0.0   23.27   79.78    1.72    0.04    0.00   23.23    9.23   93.23    0.00    1.18     1.1     1.1    1.99    3.29    3.34    4.25    5.63    6.85    0.31    0.49    0.05    0.04    0.04    0.02    0.01    0.01    0.00    1.49    1.60    1.18    2.03    3.33    3.35    4.26    5.64    6.85
 1982 097   184     0     1    92.5    91.5     1.0     0.0   23.30   79.89    1.72    0.04    0.00   23.26    9.40   93.23    0.00    1.18     1.1     1.1    1.98    3.27    3.33    4.25    5.63    6.85    0.30    0.45    0.04    0.04    0.03    0.01    0.01    0.00    0.00    1.48    1.59    1.15    2.02    3.31    3.35    4.26    5.64    6.85
 1982 098   185     0     1    92.3    91.3     0.9     0.0   23.30   79.98    1.72    0.04    0.00   23.26    9.66   93.23    0.00    1.19     1.1     1.1    1.95    3.24    3.33    4.25    5.63    6.85    0.27    0.41    0.04    0.04    0.03    0.01    0.01    0.00    0.00    1.46    1.55    1.11    1.99    3.27    3.34    4.26    5.64    6.85
 1982 099   186     0     1    91.9    91.0     0.9     0.0   23.30   80.06    1.72    0.04    0.00   23.26   10.05   93.23    0.00    1.18     1.1     1.0    1.92    3.19    3.32    4.25    5.63    6.85    0.25    0.38    0.04    0.03    0.03    0.01    0.01    0.00    0.00    1.43    1.49    1.05    1.95    3.22    3.34    4.26    5.64    6.85
 1982 100   187     0     1    91.4    90.7     0.8     0.0   23.30   80.13    1.72    0.04    0.00   23.26   10.48   93.23    0.00    1.17     1.1     0.9    1.88    3.13    3.32    4.26    5.63    6.85    0.23    0.35    0.03    0.03    0.03    0.01    0.01    0.00    0.00    1.40    1.42    0.98    1.91    3.16    3.33    4.26    5.64    6.85
 1982 101   188     0     1    91.0    90.3     0.7     0.0   23.30   80.19    1.72    0.04    0.00   23.26   10.91   93.23    0.00    1.18     1.0     0.9    1.84    3.07    3.31    4.26    5.63    6.85    0.21    0.32    0.03    0.03    0.02    0.01    0.01    0.00    0.00    1.39    1.36    0.92    1.86    3.09    3.32    4.26    5.64    6.85
 1982 102   189     0     1    90.6    90.0     0.7     0.0   23.33   80.27    1.72    0.04    0.00   23.29   11.33   93.23    0.00    1.20     1.0     0.8    1.79    3.00    3.30    4.26    5.63    6.85    0.20    0.30    0.03    0.02    0.02    0.01    0.01    0.00    0.00    1.40    1.31    0.86    1.82    3.02    3.31    4.26    5.64    6.85
 1982 103   190     0     1    90.4    89.6     0.7     0.0   23.47   80.36    1.72    0.04    0.00   23.42   11.74   93.23    0.00    1.24     1.0     0.8    1.75    2.93    3.29    4.26    5.64    6.85    0.21    0.32    0.03    0.03    0.02    0.01    0.01    0.00    0.00    1.45    1.31    0.81    1.78    2.96    3.30    4.26    5.64    6.85
 1982 104   191     0     1    90.1    89.3     0.8     0.0   23.67   80.48    1.72    0.04    0.00   23.62   12.15   93.23    0.00    1.29     1.0     0.7    1.71    2.86    3.27    4.26    5.64    6.85    0.22    0.34    0.04    0.03    0.03    0.01    0.01    0.00    0.00    1.51    1.34    0.77    1.74    2.89    3.29    4.27    5.64    6.85
 1982 105   192     0     1    90.0    89.1     0.9     0.0   23.95   80.64    1.72    0.04    0.00   23.91   12.56   93.23    0.00    1.35     1.0     0.7    1.67    2.79    3.26    4.26    5.64    6.85    0.24    0.37    0.04    0.04    0.04    0.02    0.01    0.01    0.01    1.58    1.40    0.73    1.71    2.83    3.28    4.27    5.64    6.86
 1982 106   193     0     1    90.0    88.9     1.0     0.0   24.30   80.87    1.72    0.04    0.00   24.26   12.95   93.23    0.00    1.42     1.1     0.7    1.63    2.72    3.25    4.26    5.64    6.85    0.24    0.39    0.05    0.05    0.04    0.02    0.01    0.01    0.01    1.66    1.49    0.71    1.68    2.77    3.27    4.27    5.65    6.86
 1982 107   194     0     1    89.9    88.8     1.1     0.0   24.66   81.14    1.73    0.04    0.00   24.61   13.34   93.23    0.00    1.49     1.2     0.6    1.60    2.66    3.23    4.26    5.64    6.85    0.24    0.40    0.06    0.06    0.05    0.02    0.02    0.01    0.01    1.73    1.58    0.69    1.66    2.71    3.26    4.28    5.65    6.86
 1982 108   195     0     1    89.8    88.6     1.1     0.0   24.94   81.38    1.74    0.04    0.00   24.89   13.72   93.23    0.00    1.55     1.2     0.6    1.57    2.59    3.22    4.26    5.64    6.85    0.22    0.39    0.06    0.06    0.06    0.03    0.02    0.01    0.01    1.77    1.63    0.67    1.63    2.65    3.24    4.28    5.65    6.86
 1982 109   196     0     1    89.6    88.5     1.1     0.0   25.17   81.61    1.74    0.04    0.00   25.13   14.10   93.23    0.00    1.60     1.3     0.6    1.54    2.53    3.20    4.27    5.64    6.85    0.21    0.38    0.06    0.07    0.06    0.03    0.02    0.01    0.01    1.81    1.68    0.65    1.60    2.59    3.23    4.28    5.65    6.86
 1982 110   197     0     1    89.5    88.3     1.2     0.0   25.42   81.84    1.75    0.04    0.00   25.38   14.48   93.23    0.00    1.67     1.4     0.6    1.51    2.46    3.18    4.27    5.64    6.85    0.26    0.36    0.06    0.07    0.06    0.03    0.02    0.01    0.01    1.93    1.72    0.64    1.57    2.52    3.21    4.29    5.65    6.86
 1982 111   198     0     1    89.2    88.1     1.1     0.0   25.57   82.02    1.76    0.04    0.00   25.53   14.86   93.23    0.00    1.71     1.4     0.6    1.47    2.39    3.16    4.27    5.64    6.85    0.26    0.34    0.06    0.07    0.06    0.03    0.02    0.01    0.01    1.98    1.74    0.62    1.54    2.45    3.19    4.28    5.65    6.86
 1982 112   199     0     1    88.9    87.9     1.0     0.0   25.66   82.17    1.76    0.04    0.00   25.62   15.23   93.23    0.00    1.75     1.4     0.5    1.44    2.33    3.14    4.27    5.64    6.85    0.26    0.32    0.05    0.06    0.06    0.03    0.02    0.01    0.01    2.01    1.74    0.60    1.50    2.38    3.17    4.28    5.65    6.86
 1982 113   200     0     1    88.6    87.7     1.0     0.0   25.73   82.30    1.77    0.04    0.00   25.69   15.60   93.23    0.00    1.79     1.4     0.5    1.41    2.26    3.12    4.27    5.64    6.85    0.25    0.30    0.05    0.06    0.05    0.02    0.02    0.01    0.01    2.04    1.74    0.59    1.47    2.31    3.14    4.28    5.65    6.86
 1982 114   201     0     1    88.3    87.4     0.9     0.0   25.80   82.42    1.78    0.04    0.00   25.75   15.95   93.23    0.00    1.83     1.5     0.5    1.38    2.19    3.10    4.26    5.64    6.85    0.24    0.28    0.05    0.06    0.05    0.02    0.01    0.01    0.00    2.07    1.74    0.57    1.43    2.24    3.12    4.28    5.65    6.86
 1982 115   202     0     1    88.0    87.2     0.9     0.0   25.86   82.53    1.78    0.04    0.00   25.82   16.30   93.23    0.00    1.85     1.5     0.5    1.35    2.13    3.07    4.26    5.64    6.85    0.23    0.26    0.05    0.05    0.05    0.02    0.01    0.01    0.00    2.08    1.75    0.57    1.40    2.17    3.09    4.27    5.65    6.86
 1982 116   203     0     1    87.8    86.9     0.8     0.0   25.95   82.65    1.79    0.04    0.00   25.90   16.64   93.23    0.00    1.88     1.5     0.5    1.32    2.06    3.04    4.26    5.64    6.85    0.22    0.25    0.04    0.05    0.05    0.02    0.01    0.00    0.00    2.10    1.76    0.56    1.37    2.11    3.07    4.27    5.64    6.86
 1982 117   204     0     1    87.5    86.7     0.8     0.0   26.05   82.77    1.80    0.04    0.00   26.01   16.98   93.23    0.00    1.90     1.5     0.5    1.29    2.00    3.02    4.25    5.64    6.85    0.21    0.24    0.04    0.05    0.05    0.02    0.01    0.00    0.00    2.11    1.78    0.56    1.35    2.05    3.04    4.27    5.64    6.86
 1982 118   205     0     1    87.3    86.5     0.8     0.0   26.16   82.89    1.80    0.04    0.00   26.11   17.30   93.23    0.00    1.93     1.6     0.5    1.27    1.95    2.99    4.25    5.64    6.85    0.19    0.23    0.04    0.05    0.05    0.02    0.01    0.00    0.00    2.12    1.80    0.56    1.32    2.00    3.01    4.26    5.64    6.85
 1982 119   206     0     1    87.1    86.3     0.8     0.0   26.30   83.01    1.81    0.04    0.00   26.26   17.62   93.23    0.00    0.77     2.2     0.5    1.25    1.90    2.97    4.25    5.64    6.85    0.25    0.22    0.04    0.05    0.05    0.02    0.01    0.00    0.00    1.02    2.42    0.56    1.30    1.94    2.99    4.26    5.64    6.85
 1982 120   207     0     1    87.0    86.1     1.0     0.0   26.57   83.11    1.82    0.04    0.00   26.52   17.95   93.23    0.00    0.71     2.2     0.5    1.23    1.84    2.94    4.24    5.64    6.85    0.38    0.30    0.04    0.05    0.05    0.02    0.01    0.00    0.00    1.10    2.51    0.57    1.28    1.89    2.96    4.25    5.64    6.85
 1982 121   208     0     1    86.3    85.2     1.1     0.0   26.84   83.25    1.82    0.04    0.00   26.79   18.93   93.23    0.00    0.53     1.8     0.5    1.21    1.79    2.91    4.24    5.64    6.85    0.47    0.37    0.03    0.05    0.05    0.02    0.01    0.00    0.00    1.00    2.13    0.58    1.26    1.84    2.93    4.25    5.64    6.85
 1982 122   209     0     1    85.7    84.6     1.2     0.0   27.10   83.42    1.83    0.04    0.00   27.05   19.75   93.23    0.00    0.48     1.4     0.6    1.19    1.75    2.88    4.23    5.64    6.85    0.51    0.43    0.03    0.05    0.05    0.02    0.01    0.00    0.00    0.99    1.84    0.59    1.24    1.79    2.91    4.24    5.64    6.85
 1982 123   210     0     1    85.3    84.1     1.2     0.0   27.38   83.62    1.84    0.04    0.00   27.33   20.37   93.23    0.00    0.58     1.2     0.6    1.17    1.70    2.86    4.23    5.64    6.85    0.51    0.48    0.03    0.05    0.05    0.02    0.01    0.00    0.00    1.10    1.68    0.60    1.22    1.75    2.88    4.24    5.64    6.85
 1982 124   211     0     1    85.1    83.8     1.3     0.0   27.70   83.88    1.84    0.04    0.00   27.66   20.93   93.23    0.00    0.67     1.1     0.6    1.16    1.66    2.83    4.22    5.64    6.85    0.45    0.52    0.03    0.05    0.05    0.02    0.01    0.00    0.00    1.12    1.62    0.60    1.21    1.71    2.85    4.23    5.64    6.85
 1982 125   212     0     1    84.9    83.6     1.2     0.0   28.02   84.15    1.85    0.04    0.00   27.97   21.46   93.23    0.00    0.73     1.1     0.6    1.14    1.62    2.80    4.21    5.64    6.85    0.40    0.48    0.04    0.05    0.05    0.03    0.02    0.01    0.00    1.13    1.56    0.61    1.20    1.67    2.83    4.23    5.64    6.85
 1982 126   213     0     1    84.8    83.5     1.2     0.0   28.33   84.44    1.86    0.04    0.00   28.29   21.85   93.23    0.00    0.14     0.9     1.0    1.14    1.58    2.78    4.20    5.64    6.85    0.35    0.48    0.04    0.05    0.06    0.03    0.02    0.01    0.00    0.49    1.33    1.02    1.19    1.64    2.81    4.22    5.64    6.85
 1982 127   214     0     1    85.0    83.3     1.7     0.0   28.97   84.62    1.86    0.04    0.00   28.92   22.22   93.23    0.00    0.14     0.8     1.0    1.13    1.55    2.75    4.19    5.64    6.85    0.61    0.71    0.05    0.05    0.06    0.03    0.02    0.01    0.00    0.75    1.48    1.09    1.18    1.61    2.78    4.21    5.64    6.85
 1982 128   215     0     1    84.3    82.7     1.6     0.0   29.62   84.84    1.87    0.04    0.00   29.57   23.57   93.23    0.00    0.24     0.5     0.9    1.12    1.52    2.73    4.18    5.64    6.85    0.56    0.65    0.06    0.06    0.06    0.03    0.02    0.01    0.01    0.80    1.14    0.98    1.18    1.58    2.76    4.20    5.65    6.85
 1982 129   216     0     1    83.9    82.4     1.5     0.0   30.17   85.12    1.88    0.04    0.00   30.12   24.53   93.23    0.00    0.36     0.6     0.8    1.12    1.49    2.70    4.17    5.64    6.85    0.49    0.53    0.06    0.06    0.06    0.03    0.02    0.01    0.01    0.84    1.11    0.85    1.18    1.55    2.73    4.19    5.65    6.85
 1982 130   217     0     1    83.4    81.9     1.4     0.0   30.62   85.41    1.88    0.04    0.00   30.58   25.48   93.23    0.00    0.49     0.5     0.7    1.11    1.46    2.67    4.16    5.64    6.85    0.49    0.47    0.07    0.05    0.06    0.03    0.02    0.01    0.01    0.98    0.94    0.74    1.17    1.52    2.71    4.18    5.65    6.85
 1982 131   218     0     1    83.3    81.8     1.5     0.0   31.05   85.75    1.89    0.04    0.00   31.01   25.94   93.23    0.00    0.62     0.6     0.6    1.11    1.43    2.65    4.15    5.64    6.85    0.45    0.55    0.07    0.05    0.06    0.03    0.02    0.01    0.01    1.07    1.14    0.66    1.16    1.49    2.68    4.17    5.65    6.85
 1982 132   219     0     1    83.0    81.6     1.4     0.0   31.49   86.11    1.90    0.04    0.00   31.45   26.67   93.23    0.00    0.23     0.6     0.7    1.11    1.41    2.62    4.13    5.64    6.85    0.41    0.50    0.07    0.05    0.06    0.03    0.02    0.01    0.01    0.64    1.07    0.79    1.16    1.47    2.66    4.15    5.65    6.85
 1982 133   220     0     1    83.2    81.3     1.9     0.0   32.27   86.36    1.90    0.04    0.00   32.22   27.22   93.23    0.00    0.28     0.5     0.7    1.11    1.39    2.60    4.11    5.64    6.85    0.74    0.75    0.08    0.05    0.06    0.04    0.02    0.01    0.01    1.03    1.27    0.75    1.16    1.45    2.63    4.14    5.65    6.86
 1982 134   221     0     1    83.4    81.3     2.1     0.0   33.10   86.76    1.91    0.04    0.00   33.05   27.83   93.23    0.00    0.50     0.5     0.6    1.12    1.39    2.59    4.11    5.64    6.85    0.80    0.86    0.08    0.05    0.06    0.04    0.03    0.01    0.01    1.30    1.38    0.69    1.18    1.45    2.63    4.13    5.65    6.86
 1982 135   222     0     1    83.6    81.5     2.1     0.0   33.86   87.31    1.92    0.04    0.00   33.81   28.40   93.23    0.00    0.49     0.6     0.6    1.19    1.39    2.59    4.10    5.64    6.85    0.84    0.80    0.09    0.06    0.06    0.04    0.03    0.01    0.01    1.33    1.44    0.68    1.25    1.45    2.62    4.13    5.65    6.86
 1982 136   223     0     1    83.2    81.2     2.0     0.0   34.55   87.63    1.92    0.04    0.00   34.50   29.46   93.23    0.00    0.67     0.5     0.5    1.21    1.39    2.57    4.09    5.64    6.85    0.77    0.77    0.10    0.06    0.06    0.04    0.03    0.01    0.01    1.44    1.27    0.57    1.27    1.45    2.61    4.12    5.65    6.86
 1982 137   224     0     1    83.4    81.4     2.0     0.0   35.25   88.09    1.93    0.04    0.00   35.20   29.94   93.23    0.00    0.64     0.7     0.5    1.21    1.39    2.56    4.09    5.64    6.85    0.81    0.71    0.10    0.06    0.06    0.04    0.03    0.01    0.01    1.46    1.41    0.60    1.28    1.45    2.60    4.11    5.65    6.86
[...]
 1982 118   205   180     2   163.1   161.6     1.4     0.0   28.01  171.35    3.15    0.04    0.00   27.96   50.76  161.74    0.00    0.20     0.9     3.3    5.55    8.90    7.53    8.16    8.70    8.79    0.57    0.62    0.08    0.07    0.06    0.00    0.00    0.00    0.00    0.77    1.56    3.33    5.62    8.96    7.53    8.16    8.70    8.79
 1982 119   206   180     2   154.1   152.5     1.6     0.0   28.35  171.43    3.23    0.04    0.00   28.30   51.28  170.42    0.00    0.12     0.6     2.4    4.06    7.10    6.81    7.93    8.90    9.15    0.68    0.70    0.08    0.07    0.07    0.00    0.00    0.00    0.00    0.80    1.32    2.52    4.13    7.17    6.82    7.93    8.90    9.15
 1982 120   207   180     2   144.5   142.8     1.7     0.0   28.63  171.51    3.35    0.04    0.00   28.59   52.54  178.88    0.00    0.15     0.6     2.1    3.67    6.55    6.16    7.30    8.44    8.99    0.74    0.71    0.09    0.08    0.07    0.00    0.00    0.00    0.00    0.89    1.27    2.16    3.75    6.62    6.16    7.30    8.44    8.99
 1982 121   208   180     2   128.6   127.0     1.7     0.0   28.95  171.65    3.45    0.04    0.00   28.91   54.38  193.12    0.00    0.26     0.5     1.7    3.29    5.83    5.53    6.48    7.48    8.02    0.71    0.68    0.09    0.08    0.07    0.00    0.00    0.00    0.00    0.98    1.19    1.77    3.37    5.90    5.53    6.48    7.48    8.02
 1982 122   209   180     2   121.7   120.2     1.5     0.0   29.30  171.87    3.49    0.04    0.00   29.25   56.39  198.34    0.00    0.37     0.6     1.3    3.07    5.42    5.29    6.16    7.09    7.62    0.66    0.59    0.09    0.08    0.07    0.00    0.00    0.00    0.00    1.04    1.18    1.40    3.16    5.50    5.29    6.16    7.09    7.62
 1982 123   210   180     2   119.9   118.4     1.5     0.0   29.70  172.10    3.50    0.04    0.00   29.65   58.59  198.34    0.00    0.49     0.5     1.0    2.88    5.10    5.24    6.15    7.09    7.62    0.64    0.53    0.09    0.08    0.07    0.01    0.00    0.00    0.00    1.13    1.07    1.07    2.96    5.17    5.24    6.15    7.09    7.62
 1982 124   211   180     2   118.1   116.6     1.5     0.0   30.20  172.38    3.51    0.04    0.00   30.15   60.82  198.34    0.00    0.63     0.5     0.7    2.68    4.73    5.17    6.14    7.09    7.62    0.63    0.52    0.09    0.08    0.07    0.01    0.00    0.00    0.00    1.26    1.01    0.81    2.76    4.80    5.18    6.14    7.09    7.62
 1982 125   212   180     2   116.9   115.4     1.5     0.0   30.78  172.73    3.53    0.04    0.00   30.74   62.53  198.34    0.00    0.75     0.6     0.6    2.51    4.41    5.11    6.12    7.09    7.62    0.62    0.54    0.09    0.08    0.07    0.02    0.01    0.00    0.00    1.37    1.14    0.66    2.59    4.49    5.13    6.13    7.09    7.62
 1982 126   213   180     2   114.5   112.9     1.6     0.0   31.39  173.14    3.54    0.04    0.00   31.34   63.67  200.21    0.00    0.35     0.5     0.6    1.85    3.95    4.94    6.13    7.14    7.67    0.63    0.57    0.09    0.08    0.08    0.02    0.01    0.00    0.00    0.98    1.10    0.66    1.93    4.03    4.96    6.14    7.14    7.68
 1982 127   214   180     2   111.9   109.9     2.0     0.0   32.05  173.31    3.57    0.04    0.00   32.01   64.43  202.67    0.00    0.35     0.5     0.5    1.64    3.57    4.62    5.97    7.10    7.71    0.87    0.73    0.10    0.09    0.09    0.02    0.01    0.00    0.00    1.22    1.26    0.62    1.73    3.66    4.64    5.98    7.11    7.71
 1982 128   215   180     2   103.8   101.8     2.0     0.0   32.74  173.56    3.61    0.04    0.00   32.69   66.39  209.42    0.00    0.54     0.4     0.4    1.44    3.08    4.20    5.51    6.66    7.33    0.83    0.71    0.12    0.10    0.09    0.02    0.01    0.00    0.00    1.36    1.12    0.48    1.55    3.18    4.22    5.52    6.66    7.33
 1982 129   216   180     2   101.9   100.2     1.7     0.0   33.37  173.85    3.62    0.04    0.00   33.32   68.90  209.42    0.00    0.46     0.5     0.4    1.25    2.64    4.10    5.47    6.66    7.33    0.65    0.49    0.11    0.11    0.10    0.03    0.01    0.01    0.00    1.10    0.99    0.50    1.36    2.74    4.12    5.48    6.66    7.33
 1982 130   217   180     2   100.6    98.8     1.8     0.0   33.93  174.22    3.63    0.04    0.00   33.88   70.71  209.42    0.00    0.58     0.6     0.4    1.09    2.24    3.99    5.43    6.66    7.33    0.58    0.59    0.10    0.10    0.10    0.03    0.01    0.01    0.00    1.16    1.21    0.52    1.19    2.34    4.01    5.44    6.67    7.33
 1982 131   218   180     2   101.1    99.2     1.9     0.0   34.48  174.66    3.64    0.04    0.00   34.44   70.71  209.42    0.00    0.75     0.8     0.4    1.11    2.26    3.99    5.43    6.66    7.33    0.65    0.65    0.10    0.10    0.09    0.03    0.02    0.01    0.00    1.40    1.43    0.54    1.21    2.35    4.02    5.44    6.67    7.33
 1982 132   219   180     2   100.8    98.9     1.9     0.0   35.11  175.21    3.65    0.04    0.00   35.06   70.71  210.34    0.00    0.42     0.8     0.7    1.11    2.33    3.96    5.38    6.60    7.30    0.70    0.67    0.10    0.10    0.09    0.03    0.02    0.01    0.01    1.12    1.43    0.76    1.21    2.41    3.99    5.40    6.61    7.30
 1982 133   220   180     2   100.5    98.1     2.4     0.0   35.88  175.47    3.66    0.04    0.00   35.84   70.71  211.33    0.00    0.50     0.8     0.7    1.06    2.27    3.86    5.34    6.57    7.29    0.99    0.88    0.12    0.11    0.10    0.04    0.02    0.01    0.01    1.48    1.70    0.77    1.16    2.37    3.90    5.36    6.58    7.29
 1982 134   221   180     2   100.3    97.5     2.8     0.0   36.73  175.97    3.67    0.04    0.00   36.68   70.71  212.42    0.00    0.84     1.0     0.7    1.03    2.21    3.76    5.28    6.54    7.27    1.06    1.06    0.13    0.12    0.11    0.04    0.02    0.01    0.01    1.90    2.01    0.80    1.15    2.32    3.80    5.30    6.55    7.28
 1982 135   222   180     2    99.7    96.9     2.8     0.0   37.52  176.74    3.69    0.04    0.00   37.47   70.71  213.75    0.00    0.79     1.2     0.8    1.01    2.15    3.63    5.20    6.51    7.27    1.10    1.03    0.12    0.13    0.11    0.04    0.02    0.01    0.01    1.88    2.21    0.93    1.13    2.26    3.67    5.22    6.52    7.28
 1982 136   223   180     2    98.9    95.9     3.0     0.0   38.23  177.21    3.70    0.04    0.00   38.18   70.71  215.24    0.00    1.07     1.3     0.8    0.98    2.08    3.50    5.10    6.45    7.26    1.12    1.16    0.13    0.13    0.12    0.04    0.02    0.01    0.01    2.19    2.45    0.96    1.11    2.20    3.54    5.12    6.46    7.27
 1982 137   224   180     2    97.9    94.7     3.2     0.0   38.92  177.62    3.73    0.04    0.00   38.87   70.71  216.81    0.00    0.95     1.5     0.9    0.96    2.02    3.38    4.99    6.37    7.22    1.30    1.26    0.14    0.14    0.12    0.04    0.02    0.01    0.01    2.25    2.72    1.03    1.10    2.15    3.42    5.01    6.39    7.23
 1982 138   225   180     2    97.1    93.6     3.4     0.0   39.59  178.07    3.75    0.04    0.00   39.54   70.71  218.29    0.00    1.05     1.6     1.0    0.96    1.99    3.29    4.89    6.28    7.16    1.46    1.36    0.13    0.14    0.13    0.04    0.02    0.01    0.01    2.51    2.94    1.09    1.10    2.12    3.33    4.91    6.30    7.17
 1982 139   226   180     2    96.6    93.4     3.2     0.0   40.28  178.97    3.76    0.04    0.00   40.23   70.71  219.43    0.00    1.49     2.0     1.0    0.98    2.01    3.30    4.89    6.16    7.00    1.35    1.22    0.12    0.14    0.13    0.04    0.02    0.01    0.01    2.84    3.20    1.11    1.13    2.14    3.34    4.91    6.17    7.01
 1982 140   227   180     2    97.3    94.3     2.9     0.0   40.96  179.92    3.77    0.04    0.00   40.92   70.71  219.43    0.00    1.95     2.4     1.0    1.02    2.04    3.31    4.89    6.16    7.00    1.20    1.09    0.11    0.13    0.12    0.04    0.02    0.01    0.01    3.15    3.45    1.14    1.15    2.16    3.35    4.92    6.17    7.01
 1982 141   228   180     2    96.9    94.2     2.7     0.0   41.64  180.83    3.78    0.04    0.00   41.59   70.71  220.43    0.00    1.02     2.0     1.5    1.16    2.07    3.22    4.83    6.18    7.03    1.07    0.98    0.11    0.12    0.11    0.04    0.03    0.01    0.01    2.09    3.03    1.63    1.27    2.18    3.26    4.86    6.19    7.04
 1982 142   229   180     2    96.2    93.2     3.0     0.0   42.36  181.21    3.79    0.04    0.00   42.32   70.71  221.84    0.00    1.16     2.1     1.5    1.13    1.99    3.08    4.72    6.14    7.05    1.26    1.11    0.12    0.13    0.12    0.04    0.03    0.01    0.01    2.43    3.24    1.64    1.26    2.11    3.12    4.75    6.16    7.06
 1982 143   230   180     2    92.7    89.8     2.9     0.0   43.08  182.00    3.81    0.04    0.00   43.03   70.71  225.96    0.00    1.59     2.5     1.5    1.12    1.92    2.92    4.45    5.85    6.78    1.18    1.03    0.13    0.13    0.13    0.04    0.03    0.01    0.01    2.77    3.51    1.67    1.25    2.04    2.96    4.48    5.86    6.79
 1982 144   231   180     2    93.3    90.6     2.8     0.0   43.72  182.77    3.82    0.04    0.00   43.67   70.71  225.96    0.00    1.98     2.8     1.6    1.14    1.94    2.92    4.46    5.85    6.78    1.09    0.96    0.12    0.14    0.13    0.04    0.03    0.02    0.01    3.07    3.74    1.69    1.27    2.06    2.96    4.48    5.86    6.79
 1982 145   232   180     2    93.2    90.5     2.6     0.0   44.29  183.49    3.83    0.04    0.00   44.24   70.71  226.69    0.00    1.13     2.5     2.0    1.30    1.98    2.88    4.42    5.83    6.78    1.02    0.90    0.11    0.12    0.12    0.04    0.03    0.02    0.01    2.15    3.42    2.14    1.42    2.10    2.92    4.45    5.84    6.79
 1982 146   233   180     2    89.4    86.5     2.9     0.0   44.86  183.79    3.84    0.04    0.00   44.82   70.71  231.02    0.00    0.48     1.5     1.9    1.26    1.67    2.31    4.08    5.95    7.10    1.17    1.01    0.13    0.13    0.12    0.04    0.03    0.02    0.01    1.66    2.55    2.00    1.39    1.80    2.36    4.10    5.96    7.12
 1982 147   234   180     2    84.5    81.5     3.0     0.0   45.44  184.22    3.90    0.04    0.00   45.39   70.71  236.34    0.00    0.67     1.5     1.9    1.27    1.64    2.08    3.63    5.51    6.95    1.13    1.10    0.14    0.14    0.13    0.04    0.02    0.01    0.01    1.80    2.61    2.02    1.41    1.77    2.12    3.65    5.52    6.96
 1982 148   235   180     2    75.6    72.6     3.0     0.0   46.04  184.69    3.96    0.04    0.00   46.00   70.71  245.70    0.00    1.00     1.6     1.9    1.24    1.58    1.89    3.16    4.74    6.04    1.09    1.18    0.15    0.14    0.13    0.04    0.02    0.01    0.00    2.09    2.80    2.04    1.38    1.71    1.94    3.18    4.75    6.04
 1982 149   236   180     2    72.7    69.9     2.9     0.0   46.68  185.50    3.98    0.04    0.00   46.64   70.71  249.18    0.00    0.64     1.3     1.7    1.24    1.52    1.75    2.98    4.62    6.03    1.02    1.06    0.13    0.15    0.14    0.04    0.02    0.01    0.00    1.66    2.39    1.83    1.38    1.66    1.80    3.01    4.63    6.03
 1982 150   237   180     2    69.4    66.4     3.0     0.0   47.35  185.98    4.04    0.04    0.00   47.31   70.71  253.11    0.00    0.95     1.4     1.7    1.21    1.49    1.59    2.70    4.31    5.83    1.01    1.15    0.14    0.15    0.14    0.05    0.03    0.01    0.00    1.96    2.59    1.83    1.36    1.63    1.64    2.73    4.32    5.83
 1982 151   238   180     2    64.9    62.3     2.6     0.0   48.03  186.69    4.09    0.04    0.00   47.98   72.16  256.72    0.00    0.71     1.3     1.5    1.20    1.44    1.49    2.49    4.02    5.56    0.88    0.89    0.13    0.16    0.15    0.05    0.03    0.01    0.00    1.59    2.22    1.65    1.35    1.58    1.54    2.52    4.03    5.56
 1982 152   239   180     2    55.4    52.9     2.4     0.0   48.68  186.96    4.13    0.04    0.00   48.63   74.95  264.06    0.00    0.60     0.9     1.0    1.01    1.23    1.32    2.15    3.46    4.80    0.85    0.71    0.14    0.16    0.15    0.05    0.03    0.01    0.00    1.45    1.59    1.12    1.18    1.38    1.36    2.18    3.47    4.80
 1982 153   240   180     2    53.5    51.3     2.2     0.0   49.29  187.46    4.14    0.04    0.00   49.24   76.40  265.04    0.00    0.68     0.8     0.8    0.97    1.16    1.31    2.10    3.37    4.69    0.72    0.59    0.13    0.16    0.15    0.05    0.03    0.01    0.00    1.40    1.39    0.92    1.13    1.31    1.35    2.12    3.38    4.69
 1982 154   241   180     2    51.2    49.3     1.9     0.0   49.82  187.84    4.15    0.04    0.00   49.77   78.83  265.43    0.00    0.61     0.5     0.5    0.87    1.04    1.28    2.08    3.36    4.59    0.61    0.40    0.12    0.16    0.13    0.05    0.03    0.01    0.00    1.22    0.89    0.58    1.03    1.17    1.32    2.10    3.38    4.60
 1982 155   242   180     2    50.1    48.3     1.8     0.0   50.29  188.17    4.15    0.04    0.00   50.25   80.35  265.43    0.00    0.29     0.6     0.5    0.71    0.84    1.23    2.04    3.36    4.59    0.42    0.47    0.11    0.16    0.12    0.04    0.03    0.01    0.01    0.72    1.07    0.60    0.87    0.96    1.27    2.07    3.37    4.60
 1982 156   243   180     2    49.1    47.2     1.9     0.0   50.74  188.55    4.16    0.04    0.00   50.70   81.80  265.43    0.00    0.39     0.3     0.5    0.60    0.68    1.18    2.01    3.36    4.59    0.54    0.52    0.11    0.14    0.11    0.04    0.03    0.01    0.01    0.93    0.81    0.61    0.74    0.79    1.22    2.03    3.37    4.60
 1982 157   244   180     2    48.0    46.6     1.4     0.0   51.16  188.79    4.16    0.04    0.00   51.12   83.32  265.43    0.00    0.43     0.3     0.5    0.51    0.56    1.13    1.97    3.35    4.59    0.31    0.24    0.10    0.13    0.11    0.04    0.03    0.01    0.01    0.74    0.56    0.63    0.64    0.66    1.18    2.00    3.37    4.60
 1982 158   245   180     2    47.4    45.9     1.6     0.0   51.64  189.12    4.16    0.04    0.00   51.60   84.41  265.43    0.00    0.31     0.4     0.3    0.54    0.47    1.09    1.94    3.35    4.59    0.40    0.34    0.10    0.12    0.10    0.04    0.03    0.01    0.01    0.71    0.77    0.40    0.66    0.57    1.13    1.96    3.36    4.60
 1982 159   246   180     2    47.5    45.7     1.8     0.0   52.23  189.46    4.17    0.04    0.00   52.19   84.94  265.43    0.00    0.43     0.5     0.3    0.47    0.49    1.05    1.90    3.35    4.59    0.55    0.50    0.10    0.11    0.10    0.04    0.03    0.02    0.01    0.98    0.96    0.43    0.58    0.59    1.09    1.93    3.36    4.60
 1982 160   247   180     2    47.5    45.8     1.8     0.0   52.87  189.94    4.17    0.04    0.00   52.83   85.48  265.43    0.00    0.24     0.6     0.4    0.52    0.57    1.01    1.87    3.34    4.59    0.38    0.55    0.10    0.10    0.09    0.04    0.03    0.02    0.01    0.62    1.11    0.53    0.62    0.66    1.05    1.90    3.36    4.61
 1982 161   248   180     2    45.7    44.0     1.7     0.0   53.60  190.22    4.17    0.04    0.00   53.55   87.09  266.39    0.00    0.39     0.2     0.4    0.43    0.48    0.94    1.79    3.26    4.52    0.55    0.36    0.11    0.11    0.10    0.04    0.03    0.02    0.01    0.94    0.53    0.55    0.55    0.58    0.99    1.82    3.28    4.54
 1982 162   249   180     2    45.8    44.1     1.7     0.0   54.26  190.68    4.18    0.04    0.00   54.21   87.61  266.39    0.00    0.47     0.3     0.5    0.45    0.51    0.91    1.77    3.26    4.53    0.37    0.46    0.11    0.12    0.10    0.04    0.03    0.02    0.02    0.84    0.76    0.58    0.57    0.61    0.96    1.80    3.28    4.54
 1982 163   250   180     2    46.1    44.3     1.8     0.0   54.83  191.18    4.18    0.04    0.00   54.79   87.92  266.39    0.00    0.61     0.5     0.5    0.49    0.54    0.88    1.74    3.26    4.53    0.44    0.51    0.10    0.11    0.09    0.04    0.03    0.02    0.02    1.05    0.96    0.61    0.60    0.63    0.92    1.77    3.28    4.54
 1982 164   251   180     2    46.0    44.2     1.8     0.0   55.35  191.71    4.18    0.04    0.00   55.31   88.51  266.39    0.00    0.61     0.6     0.5    0.52    0.45    0.85    1.71    3.26    4.53    0.44    0.52    0.10    0.10    0.09    0.04    0.03    0.02    0.02    1.05    1.14    0.63    0.62    0.54    0.89    1.74    3.28    4.55
 1982 165   252   180     2    44.6    43.1     1.5     0.0   55.81  192.10    4.19    0.04    0.00   55.76   90.31  266.39    0.00    0.68     0.4     0.2    0.44    0.47    0.82    1.68    3.25    4.53    0.41    0.32    0.10    0.10    0.09    0.04    0.03    0.02    0.02    1.09    0.67    0.33    0.54    0.56    0.87    1.72    3.27    4.55
 1982 166   253   180     2    44.8    43.2     1.5     0.0   56.24  192.51    4.19    0.04    0.00   56.20   90.62  266.39    0.00    0.30     0.5     0.4    0.48    0.51    0.80    1.66    3.25    4.53    0.37    0.36    0.09    0.09    0.09    0.04    0.03    0.02    0.02    0.67    0.85    0.46    0.58    0.59    0.84    1.69    3.27    4.55
 1982 167   254   180     2    45.1    43.3     1.8     0.0   56.86  192.83    4.19    0.04    0.00   56.82   90.89  266.39    0.00    0.44     0.5     0.4    0.49    0.54    0.77    1.63    3.25    4.53    0.52    0.51    0.11    0.10    0.08    0.04    0.03    0.02    0.02    0.95    1.04    0.49    0.60    0.63    0.81    1.66    3.27    4.55
 1982 168   255   180     2    44.5    42.8     1.7     0.0   57.46  193.33    4.20    0.04    0.00   57.41   92.06  266.39    0.00    0.51     0.3     0.4    0.52    0.46    0.75    1.61    3.25    4.54    0.33    0.54    0.10    0.10    0.08    0.04    0.03    0.02    0.02    0.84    0.79    0.52    0.62    0.54    0.79    1.64    3.27    4.55
 1982 169   256   180     2    44.1    42.6     1.5     0.0   58.01  193.70    4.20    0.04    0.00   57.96   93.06  266.39    0.00    0.50     0.3     0.5    0.45    0.48    0.73    1.59    3.24    4.54    0.36    0.27    0.10    0.09    0.08    0.04    0.03    0.02    0.02    0.86    0.57    0.55    0.54    0.57    0.77    1.62    3.27    4.56
 1982 170   257   180     2    44.3    42.8     1.5     0.0   58.53  194.14    4.20    0.04    0.00   58.48   93.31  266.39    0.00    0.64     0.4     0.5    0.47    0.51    0.71    1.56    3.24    4.54    0.35    0.35    0.10    0.09    0.08    0.04    0.03    0.02    0.02    0.99    0.75    0.58    0.57    0.59    0.75    1.59    3.27    4.56
 1982 171   258   180     2    44.5    42.9     1.5     0.0   58.97  194.56    4.21    0.04    0.00   58.92   93.58  266.39    0.00    0.70     0.5     0.5    0.50    0.53    0.69    1.54    3.24    4.54    0.31    0.39    0.09    0.09    0.08    0.04    0.03    0.02    0.02    1.01    0.90    0.61    0.59    0.61    0.73    1.57    3.26    4.56
 1982 172   259   180     2    43.7    42.2     1.5     0.0   59.37  194.98    4.21    0.04    0.00   59.33   94.75  266.39    0.00    0.78     0.4     0.3    0.53    0.46    0.68    1.52    3.24    4.54    0.27    0.39    0.09    0.09    0.08    0.04    0.03    0.02    0.02    1.05    0.80    0.35    0.61    0.54    0.72    1.55    3.26    4.56
 1982 173   260   180     2    43.7    42.2     1.5     0.0   59.76  195.41    4.21    0.04    0.00   59.72   95.14  266.39    0.00    0.30     0.8     0.3    0.46    0.48    0.66    1.50    3.24    4.55    0.24    0.38    0.09    0.09    0.08    0.04    0.03    0.02    0.02    0.54    1.19    0.38    0.55    0.56    0.70    1.53    3.26    4.57
 1982 174   261   180     2    43.8    42.1     1.7     0.0   60.35  195.82    4.22    0.04    0.00   60.31   95.65  266.39    0.00    0.30     0.7     0.3    0.49    0.50    0.64    1.48    3.23    4.55    0.44    0.44    0.09    0.08    0.08    0.04    0.03    0.02    0.02    0.74    1.14    0.42    0.57    0.58    0.68    1.51    3.26    4.57
